<?xml version="1.0" encoding="UTF-8"?>

<!-- generated on 2024-04-20 01:32:31 by Eclipse SUMO netedit Version 1.19.0
-->

<additional xmlns:xsi="http://www.w3.org/2001/XMLSchema-instance" xsi:noNamespaceSchemaLocation="http://sumo.dlr.de/xsd/additional_file.xsd">
    <!-- Detectors -->
    <inductionLoop id="j1_0" lane="E0_1" pos="54.32" period="300.00" file="j1_0.xml"/>
    <inductionLoop id="j1_1" lane="-E1_1" pos="53.89" period="300.00" file="j1_1.xml"/>
    <inductionLoop id="j1_2" lane="E2_1" pos="93.06" period="300.00" file="j1_2.xml"/>
</additional>
