<?xml version="1.0" encoding="UTF-8"?>

<!-- generated on 2024-04-23 20:42:30 by Eclipse SUMO netedit Version 1.19.0
-->

<additional xmlns:xsi="http://www.w3.org/2001/XMLSchema-instance" xsi:noNamespaceSchemaLocation="http://sumo.dlr.de/xsd/additional_file.xsd">
    <!-- Detectors -->
    <inductionLoop id="e1_0" lane="E0_1" pos="40.30" period="300.00" file="e1_0.xml"/>
    <inductionLoop id="e1_1" lane="E2_1" pos="40.19" period="300.00" file="e1_1.xml"/>
    <inductionLoop id="e1_2" lane="-E1_1" pos="40.13" period="300.00" file="e1_2.xml"/>
    <inductionLoop id="e1_3" lane="-E3_1" pos="40.20" period="300.00" file="e1_3.xml"/>
</additional>
