<?xml version="1.0" encoding="UTF-8"?>

<!-- generated on 2024-04-15 17:31:32 by Eclipse SUMO sumo Version 1.19.0
-->

<configuration xmlns:xsi="http://www.w3.org/2001/XMLSchema-instance" xsi:noNamespaceSchemaLocation="http://sumo.dlr.de/xsd/sumoConfiguration.xsd">

    <input>
        <net-file value="5-way.net.xml"/>
        <route-files value="5-way.rou.xml"/>
    </input>

</configuration>
