<?xml version="1.0" encoding="UTF-8"?>

<!-- generated on 2024-04-24 16:53:27 by Eclipse SUMO netedit Version 1.19.0
-->

<additional xmlns:xsi="http://www.w3.org/2001/XMLSchema-instance" xsi:noNamespaceSchemaLocation="http://sumo.dlr.de/xsd/additional_file.xsd">
    <!-- Detectors -->
    <inductionLoop id="e1_10" lane="E3_0" pos="1.21" period="300.00" file="e1_10.xml"/>
    <inductionLoop id="e1_4" lane="E0_0" pos="29.74" period="300.00" file="e1_4.xml"/>
    <inductionLoop id="e1_5" lane="-E0_0" pos="2.01" period="300.00" file="e1_5.xml"/>
    <inductionLoop id="e1_6" lane="E2_0" pos="29.79" period="300.00" file="e1_6.xml"/>
    <inductionLoop id="e1_7" lane="-E2_0" pos="2.03" period="300.00" file="e1_7.xml"/>
    <inductionLoop id="e1_8" lane="E1_0" pos="2.06" period="300.00" file="e1_8.xml"/>
    <inductionLoop id="e1_9" lane="-E3_0" pos="30.01" period="300.00" file="e1_9.xml"/>
</additional>
