<?xml version="1.0" encoding="UTF-8"?>

<!-- generated on 2024-04-24 16:23:25 by Eclipse SUMO netedit Version 1.19.0
-->

<additional xmlns:xsi="http://www.w3.org/2001/XMLSchema-instance" xsi:noNamespaceSchemaLocation="http://sumo.dlr.de/xsd/additional_file.xsd">
    <!-- Detectors -->
    <inductionLoop id="e1_0" lane="E0_0" pos="40.11" period="300.00" file="e1_0.xml"/>
    <inductionLoop id="e1_1" lane="E2_0" pos="40.19" period="300.00" file="e1_1.xml"/>
    <inductionLoop id="e1_2" lane="-E2_0" pos="2.05" period="300.00" file="e1_2.xml"/>
    <inductionLoop id="e1_3" lane="-E0_0" pos="1.86" period="300.00" file="e1_3.xml"/>
    <inductionLoop id="e1_4" lane="-E1_0" pos="40.19" period="300.00" file="e1_4.xml"/>
    <inductionLoop id="e1_6" lane="E1_0" pos="1.79" period="300.00" file="e1_6.xml"/>
</additional>
