<?xml version="1.0" encoding="UTF-8"?>

<!-- generated on 2024-04-24 16:24:57 by Eclipse SUMO netedit Version 1.19.0
-->

<additional xmlns:xsi="http://www.w3.org/2001/XMLSchema-instance" xsi:noNamespaceSchemaLocation="http://sumo.dlr.de/xsd/additional_file.xsd">
    <!-- Detectors -->
    <inductionLoop id="e1_10" lane="E3_0" pos="2.37" period="300.00" file="e1_10.xml"/>
    <inductionLoop id="e1_4" lane="E0_0" pos="40.30" period="300.00" file="e1_4.xml"/>
    <inductionLoop id="e1_5" lane="-E3_0" pos="40.17" period="300.00" file="e1_5.xml"/>
    <inductionLoop id="e1_6" lane="-E1_0" pos="40.27" period="300.00" file="e1_6.xml"/>
    <inductionLoop id="e1_7" lane="E2_0" pos="40.12" period="300.00" file="e1_7.xml"/>
    <inductionLoop id="e1_8" lane="-E2_0" pos="2.17" period="300.00" file="e1_8.xml"/>
    <inductionLoop id="e1_9" lane="-E0_0" pos="1.95" period="300.00" file="e1_9.xml"/>
</additional>
