<?xml version="1.0" encoding="UTF-8"?>

<!-- generated on 2024-04-24 16:54:32 by Eclipse SUMO netedit Version 1.19.0
-->

<additional xmlns:xsi="http://www.w3.org/2001/XMLSchema-instance" xsi:noNamespaceSchemaLocation="http://sumo.dlr.de/xsd/additional_file.xsd">
    <!-- Detectors -->
    <inductionLoop id="e1_3" lane="E0_0" pos="39.80" period="300.00" file="e1_3.xml"/>
    <inductionLoop id="e1_4" lane="-E0_0" pos="1.73" period="300.00" file="e1_4.xml"/>
    <inductionLoop id="e1_5" lane="-E1_0" pos="40.13" period="300.00" file="e1_5.xml"/>
    <inductionLoop id="e1_6" lane="E1_0" pos="2.17" period="300.00" file="e1_6.xml"/>
    <inductionLoop id="e1_7" lane="E2_0" pos="43.43" period="300.00" file="e1_7.xml"/>
    <inductionLoop id="e1_8" lane="-E2_0" pos="2.11" period="300.00" file="e1_8.xml"/>
</additional>
