<?xml version="1.0" encoding="UTF-8"?>

<!-- generated on 2024-04-20 00:26:07 by Eclipse SUMO netedit Version 1.19.0
-->

<additional xmlns:xsi="http://www.w3.org/2001/XMLSchema-instance" xsi:noNamespaceSchemaLocation="http://sumo.dlr.de/xsd/additional_file.xsd">
    <!-- Detectors -->
    <inductionLoop id="e1_0" lane="E1_1" pos="91.41" period="300.00" file="e1_0.xml"/>
    <inductionLoop id="e1_2" lane="E3_1" pos="85.35" period="300.00" file="e1_2.xml"/>
    <inductionLoop id="e1_3" lane="-E2_1" pos="91.41" period="300.00" file="e1_3.xml"/>
    <inductionLoop id="e1_4" lane="-E4_1" pos="85.35" period="300.00" file="e1_4.xml"/>
    <inductionLoop id="e1_5" lane="E5_1" pos="91.80" period="300.00" file="e1_5.xml"/>
</additional>
