<?xml version="1.0" encoding="UTF-8"?>

<!-- generated on 2024-04-20 00:38:22 by Eclipse SUMO sumo Version 1.19.0
-->

<configuration xmlns:xsi="http://www.w3.org/2001/XMLSchema-instance" xsi:noNamespaceSchemaLocation="http://sumo.dlr.de/xsd/sumoConfiguration.xsd">

    <input>
        <net-file value="X-intersection.net.xml"/>
        <route-files value="X-intersection_demands.rou.xml"/>
        <additional-files value="../5-way/crossroads.add.xml"/>
    </input>

</configuration>
