<?xml version="1.0" encoding="UTF-8"?>

<!-- generated on 2024-04-20 01:24:49 by Eclipse SUMO netedit Version 1.19.0
<configuration xmlns:xsi="http://www.w3.org/2001/XMLSchema-instance" xsi:noNamespaceSchemaLocation="http://sumo.dlr.de/xsd/neteditConfiguration.xsd">

    <input>
        <sumocfg-file value="S:\Documents\GitHub\CPS_SUMO\Actuated\X-Intersection\X-intersection.sumocfg"/>
        <additional-files value="S:\Documents\GitHub\CPS_SUMO\Actuated\X-Intersection\../T-intersection/crossroads.add.xml"/>
        <route-files value="S:\Documents\GitHub\CPS_SUMO\Actuated\X-Intersection\X-intersection_demands.rou.xml"/>
        <sumo-net-file value="S:\Documents\GitHub\CPS_SUMO\Actuated\X-Intersection\X-intersection.net.xml"/>
    </input>

    <output>
        <output-file value="S:\Documents\GitHub\CPS_SUMO\Actuated\X-Intersection\X-intersection.net.xml"/>
    </output>

    <processing>
        <geometry.min-radius.fix.railways value="false"/>
        <geometry.max-grade.fix value="false"/>
        <offset.disable-normalization value="true"/>
        <lefthand value="0"/>
    </processing>

    <junctions>
        <no-internal-links value="false"/>
        <no-turnarounds value="true"/>
        <junctions.corner-detail value="5"/>
        <junctions.limit-turn-speed value="5.50"/>
        <rectangular-lane-cut value="0"/>
    </junctions>

    <pedestrian>
        <walkingareas value="0"/>
    </pedestrian>

</configuration>
-->

<net version="1.16" junctionCornerDetail="5" limitTurnSpeed="5.50" xmlns:xsi="http://www.w3.org/2001/XMLSchema-instance" xsi:noNamespaceSchemaLocation="http://sumo.dlr.de/xsd/net_file.xsd">

    <location netOffset="0.00,0.00" convBoundary="-100.00,-50.00,100.00,50.00" origBoundary="-10000000000.00,-10000000000.00,10000000000.00,10000000000.00" projParameter="!"/>

    <edge id=":J0_w0" function="walkingarea">
        <lane id=":J0_w0_0" index="0" allow="pedestrian" speed="2.78" length="8.40" width="2.00" shape="-101.43,47.14 -102.33,45.35 -97.67,54.65 -98.57,52.86"/>
    </edge>
    <edge id=":J1_0" function="internal">
        <lane id=":J1_0_0" index="0" disallow="pedestrian" speed="13.51" length="17.51" shape="10.38,6.98 5.19,5.03 0.00,4.38 -5.19,5.03 -6.61,5.56"/>
    </edge>
    <edge id=":J1_1" function="internal">
        <lane id=":J1_1_0" index="0" disallow="pedestrian" speed="13.89" length="24.80" shape="10.38,6.98 -11.81,-4.11"/>
    </edge>
    <edge id=":J1_2" function="internal">
        <lane id=":J1_2_0" index="0" disallow="pedestrian" speed="7.86" length="5.70" shape="10.38,6.98 5.63,3.81"/>
    </edge>
    <edge id=":J1_12" function="internal">
        <lane id=":J1_12_0" index="0" disallow="pedestrian" speed="13.51" length="4.02" shape="-6.61,5.56 -10.38,6.98"/>
    </edge>
    <edge id=":J1_13" function="internal">
        <lane id=":J1_13_0" index="0" disallow="pedestrian" speed="7.86" length="14.68" shape="5.63,3.81 5.14,3.49 3.40,0.00 5.14,-3.49 10.38,-6.98"/>
    </edge>
    <edge id=":J1_3" function="internal">
        <lane id=":J1_3_0" index="0" disallow="pedestrian" speed="6.18" length="7.91" shape="11.81,-4.11 8.72,-2.06 7.69,0.00 8.54,1.70"/>
    </edge>
    <edge id=":J1_4" function="internal">
        <lane id=":J1_4_0" index="0" disallow="pedestrian" speed="13.89" length="24.80" shape="11.81,-4.11 -10.38,6.98"/>
    </edge>
    <edge id=":J1_5" function="internal">
        <lane id=":J1_5_0" index="0" disallow="pedestrian" speed="13.89" length="6.30" shape="11.81,-4.11 5.90,-1.90"/>
    </edge>
    <edge id=":J1_14" function="internal">
        <lane id=":J1_14_0" index="0" disallow="pedestrian" speed="6.18" length="4.11" shape="8.54,1.70 8.72,2.06 11.81,4.11"/>
    </edge>
    <edge id=":J1_15" function="internal">
        <lane id=":J1_15_0" index="0" disallow="pedestrian" speed="13.89" length="18.20" shape="5.90,-1.90 -0.00,-1.16 -5.90,-1.90 -11.81,-4.11"/>
    </edge>
    <edge id=":J1_6" function="internal">
        <lane id=":J1_6_0" index="0" disallow="pedestrian" speed="13.51" length="17.51" shape="-10.38,-6.98 -5.19,-5.03 0.00,-4.38 5.19,-5.03 6.61,-5.56"/>
    </edge>
    <edge id=":J1_7" function="internal">
        <lane id=":J1_7_0" index="0" disallow="pedestrian" speed="13.89" length="24.80" shape="-10.38,-6.98 11.81,4.11"/>
    </edge>
    <edge id=":J1_8" function="internal">
        <lane id=":J1_8_0" index="0" disallow="pedestrian" speed="7.86" length="5.70" shape="-10.38,-6.98 -5.63,-3.81"/>
    </edge>
    <edge id=":J1_16" function="internal">
        <lane id=":J1_16_0" index="0" disallow="pedestrian" speed="13.51" length="4.02" shape="6.61,-5.56 10.38,-6.98"/>
    </edge>
    <edge id=":J1_17" function="internal">
        <lane id=":J1_17_0" index="0" disallow="pedestrian" speed="7.86" length="14.68" shape="-5.63,-3.81 -5.14,-3.49 -3.40,-0.00 -5.14,3.49 -10.38,6.98"/>
    </edge>
    <edge id=":J1_9" function="internal">
        <lane id=":J1_9_0" index="0" disallow="pedestrian" speed="6.18" length="7.91" shape="-11.81,4.11 -8.72,2.06 -7.69,-0.00 -8.54,-1.70"/>
    </edge>
    <edge id=":J1_10" function="internal">
        <lane id=":J1_10_0" index="0" disallow="pedestrian" speed="13.89" length="24.80" shape="-11.81,4.11 10.38,-6.98"/>
    </edge>
    <edge id=":J1_11" function="internal">
        <lane id=":J1_11_0" index="0" disallow="pedestrian" speed="13.89" length="6.30" shape="-11.81,4.11 -5.90,1.90"/>
    </edge>
    <edge id=":J1_18" function="internal">
        <lane id=":J1_18_0" index="0" disallow="pedestrian" speed="6.18" length="4.11" shape="-8.54,-1.70 -8.72,-2.06 -11.81,-4.11"/>
    </edge>
    <edge id=":J1_19" function="internal">
        <lane id=":J1_19_0" index="0" disallow="pedestrian" speed="13.89" length="18.20" shape="-5.90,1.90 0.00,1.16 5.90,1.90 11.81,4.11"/>
    </edge>
    <edge id=":J1_c0" function="crossing" crossingEdges="-E2 E2">
        <lane id=":J1_c0_0" index="0" allow="pedestrian" speed="2.78" length="6.40" width="4.00" shape="10.73,1.79 7.87,7.51"/>
    </edge>
    <edge id=":J1_c1" function="crossing" crossingEdges="E1 -E1">
        <lane id=":J1_c1_0" index="0" allow="pedestrian" speed="2.78" length="6.40" width="4.00" shape="7.87,-7.51 10.73,-1.79"/>
    </edge>
    <edge id=":J1_c2" function="crossing" crossingEdges="E3 -E3">
        <lane id=":J1_c2_0" index="0" allow="pedestrian" speed="2.78" length="6.40" width="4.00" shape="-10.73,-1.79 -7.87,-7.51"/>
    </edge>
    <edge id=":J1_c3" function="crossing" crossingEdges="-E0 E0">
        <lane id=":J1_c3_0" index="0" allow="pedestrian" speed="2.78" length="6.40" width="4.00" shape="-7.87,7.51 -10.73,1.79"/>
    </edge>
    <edge id=":J1_w0" function="walkingarea">
        <lane id=":J1_w0_0" index="0" allow="pedestrian" speed="2.78" length="12.17" width="4.00" shape="-9.66,8.41 -8.77,10.20 8.77,10.20 9.66,8.41 6.44,7.07 3.22,6.26 0.00,5.99 -3.22,6.26 -6.44,7.07"/>
    </edge>
    <edge id=":J1_w1" function="walkingarea">
        <lane id=":J1_w1_0" index="0" allow="pedestrian" speed="2.78" length="3.34" width="4.00" shape="12.52,2.68 13.42,0.89 13.42,-0.89 12.52,-2.68 11.03,-1.79 10.14,-0.89 9.84,0.00 10.14,0.89 11.03,1.79"/>
    </edge>
    <edge id=":J1_w2" function="walkingarea">
        <lane id=":J1_w2_0" index="0" allow="pedestrian" speed="2.78" length="12.17" width="4.00" shape="9.66,-8.41 8.77,-10.20 -8.77,-10.20 -9.66,-8.41 -6.44,-7.07 -3.22,-6.26 0.00,-5.99 3.22,-6.26 6.44,-7.07"/>
    </edge>
    <edge id=":J1_w3" function="walkingarea">
        <lane id=":J1_w3_0" index="0" allow="pedestrian" speed="2.78" length="3.34" width="4.00" shape="-12.52,-2.68 -13.42,-0.89 -13.42,0.89 -12.52,2.68 -11.03,1.79 -10.14,0.89 -9.84,-0.00 -10.14,-0.89 -11.03,-1.79"/>
    </edge>
    <edge id=":J2_w0" function="walkingarea">
        <lane id=":J2_w0_0" index="0" allow="pedestrian" speed="2.78" length="8.40" width="2.00" shape="101.43,-47.14 102.33,-45.35 97.67,-54.65 98.57,-52.86"/>
    </edge>
    <edge id=":J3_w0" function="walkingarea">
        <lane id=":J3_w0_0" index="0" allow="pedestrian" speed="2.78" length="8.40" width="2.00" shape="98.57,52.86 97.67,54.65 102.33,45.35 101.43,47.14"/>
    </edge>
    <edge id=":J4_w0" function="walkingarea">
        <lane id=":J4_w0_0" index="0" allow="pedestrian" speed="2.78" length="8.40" width="2.00" shape="-98.57,-52.86 -97.67,-54.65 -102.33,-45.35 -101.43,-47.14"/>
    </edge>

    <edge id="-E0" from="J1" to="J0" priority="-1">
        <lane id="-E0_0" index="0" allow="pedestrian" speed="13.89" length="99.40" width="2.00" shape="-9.21,9.30 -98.12,53.76"/>
        <lane id="-E0_1" index="1" disallow="pedestrian" speed="13.89" length="99.40" shape="-10.38,6.98 -99.28,51.43"/>
    </edge>
    <edge id="-E1" from="J2" to="J1" priority="-1">
        <lane id="-E1_0" index="0" allow="pedestrian" speed="13.89" length="99.40" width="2.00" shape="101.88,-46.24 12.97,-1.79"/>
        <lane id="-E1_1" index="1" disallow="pedestrian" speed="13.89" length="99.40" shape="100.72,-48.57 11.81,-4.11"/>
    </edge>
    <edge id="-E2" from="J1" to="J3" priority="-1">
        <lane id="-E2_0" index="0" allow="pedestrian" speed="13.89" length="99.40" width="2.00" shape="12.97,1.79 101.88,46.24"/>
        <lane id="-E2_1" index="1" disallow="pedestrian" speed="13.89" length="99.40" shape="11.81,4.11 100.72,48.57"/>
    </edge>
    <edge id="-E3" from="J4" to="J1" priority="-1">
        <lane id="-E3_0" index="0" allow="pedestrian" speed="13.89" length="99.40" width="2.00" shape="-98.12,-53.76 -9.21,-9.30"/>
        <lane id="-E3_1" index="1" disallow="pedestrian" speed="13.89" length="99.40" shape="-99.28,-51.43 -10.38,-6.98"/>
    </edge>
    <edge id="E0" from="J0" to="J1" priority="-1">
        <lane id="E0_0" index="0" allow="pedestrian" speed="13.89" length="99.40" width="2.00" shape="-101.88,46.24 -12.97,1.79"/>
        <lane id="E0_1" index="1" disallow="pedestrian" speed="13.89" length="99.40" shape="-100.72,48.57 -11.81,4.11"/>
    </edge>
    <edge id="E1" from="J1" to="J2" priority="-1">
        <lane id="E1_0" index="0" allow="pedestrian" speed="13.89" length="99.40" width="2.00" shape="9.21,-9.30 98.12,-53.76"/>
        <lane id="E1_1" index="1" disallow="pedestrian" speed="13.89" length="99.40" shape="10.38,-6.98 99.28,-51.43"/>
    </edge>
    <edge id="E2" from="J3" to="J1" priority="-1">
        <lane id="E2_0" index="0" allow="pedestrian" speed="13.89" length="99.40" width="2.00" shape="98.12,53.76 9.21,9.30"/>
        <lane id="E2_1" index="1" disallow="pedestrian" speed="13.89" length="99.40" shape="99.28,51.43 10.38,6.98"/>
    </edge>
    <edge id="E3" from="J1" to="J4" priority="-1">
        <lane id="E3_0" index="0" allow="pedestrian" speed="13.89" length="99.40" width="2.00" shape="-12.97,-1.79 -101.88,-46.24"/>
        <lane id="E3_1" index="1" disallow="pedestrian" speed="13.89" length="99.40" shape="-11.81,-4.11 -100.72,-48.57"/>
    </edge>

    <tlLogic id="J1" type="actuated" programID="0" offset="0">
        <phase duration="37" state="gGgrrrgGgrrrrGrG" minDur="5" maxDur="50"/>
        <phase duration="5"  state="gGgrrrgGgrrrrrrr" minDur="5" maxDur="50"/>
        <phase duration="3"  state="yyyrrryyyrrrrrrr"/>
        <phase duration="37" state="rrrgGgrrrgGgGrGr" minDur="5" maxDur="50"/>
        <phase duration="5"  state="rrrgGgrrrgGgrrrr" minDur="5" maxDur="50"/>
        <phase duration="3"  state="rrryyyrrryyyrrrr"/>
        <param key="-E1_1" value="d1_2"/>
        <param key="-E3_1" value="d1_5"/>
        <param key="E0_1" value="d1_0"/>
        <param key="E2_1" value="d1_1"/>
    </tlLogic>

    <junction id="J0" type="dead_end" x="-100.00" y="50.00" incLanes="-E0_0 -E0_1" intLanes="" shape="-100.00,50.00 -97.67,54.65 -100.00,50.00"/>
    <junction id="J1" type="traffic_light" x="0.00" y="0.00" incLanes="E2_0 E2_1 -E1_0 -E1_1 -E3_0 -E3_1 E0_0 E0_1 :J1_w1_0 :J1_w2_0 :J1_w3_0 :J1_w0_0" intLanes=":J1_12_0 :J1_1_0 :J1_13_0 :J1_14_0 :J1_4_0 :J1_15_0 :J1_16_0 :J1_7_0 :J1_17_0 :J1_18_0 :J1_10_0 :J1_19_0 :J1_c0_0 :J1_c1_0 :J1_c2_0 :J1_c3_0" shape="8.77,10.20 13.42,0.89 12.62,0.30 12.52,0.00 12.62,-0.30 12.92,-0.60 13.42,-0.89 8.77,-10.20 5.84,-8.98 2.92,-8.25 0.00,-8.01 -2.92,-8.25 -5.84,-8.98 -8.77,-10.20 -13.42,-0.89 -12.62,-0.30 -12.52,0.00 -12.62,0.30 -12.92,0.60 -13.42,0.89 -8.77,10.20 -5.84,8.98 -2.92,8.25 0.00,8.01 2.92,8.25 5.84,8.98">
        <request index="0"  response="1001000000000000" foes="1001000100010000" cont="1"/>
        <request index="1"  response="0101101000100000" foes="0101111100110000" cont="0"/>
        <request index="2"  response="0011100011100000" foes="0011110011110000" cont="1"/>
        <request index="3"  response="0011000010000000" foes="0011100010000000" cont="1"/>
        <request index="4"  response="1010000110000111" foes="1010100110000111" cont="0"/>
        <request index="5"  response="0110111110000110" foes="0110111110000110" cont="1"/>
        <request index="6"  response="0110000000000000" foes="0110010000000100" cont="1"/>
        <request index="7"  response="0101100000101000" foes="0101110000111100" cont="0"/>
        <request index="8"  response="1100100000100011" foes="1100110000110011" cont="1"/>
        <request index="9"  response="1100000000000010" foes="1100000000100010" cont="1"/>
        <request index="10" response="1010000111000110" foes="1010000111100110" cont="0"/>
        <request index="11" response="1001000110011110" foes="1001000110111110" cont="1"/>
        <request index="12" response="0000000000000000" foes="0000100010001111" cont="0"/>
        <request index="13" response="0000000000000000" foes="0000010001111100" cont="0"/>
        <request index="14" response="0000000000000000" foes="0000001111100010" cont="0"/>
        <request index="15" response="0000000000000000" foes="0000111100010001" cont="0"/>
    </junction>
    <junction id="J2" type="dead_end" x="100.00" y="-50.00" incLanes="E1_0 E1_1" intLanes="" shape="100.00,-50.00 97.67,-54.65 100.00,-50.00"/>
    <junction id="J3" type="dead_end" x="100.00" y="50.00" incLanes="-E2_0 -E2_1" intLanes="" shape="100.00,50.00 102.33,45.35 100.00,50.00"/>
    <junction id="J4" type="dead_end" x="-100.00" y="-50.00" incLanes="E3_0 E3_1" intLanes="" shape="-100.00,-50.00 -102.33,-45.35 -100.00,-50.00"/>

    <junction id=":J1_12_0" type="internal" x="-6.61" y="5.56" incLanes=":J1_0_0" intLanes=":J1_4_0 :J1_8_0 :J1_c0_0 :J1_c3_0"/>
    <junction id=":J1_13_0" type="internal" x="5.63" y="3.81" incLanes=":J1_2_0 -E3_1" intLanes=":J1_4_0 :J1_5_0 :J1_6_0 :J1_7_0 :J1_10_0 :J1_11_0 :J1_c0_0 :J1_c1_0"/>
    <junction id=":J1_14_0" type="internal" x="8.54" y="1.70" incLanes=":J1_3_0" intLanes=":J1_7_0 :J1_11_0 :J1_c0_0 :J1_c1_0"/>
    <junction id=":J1_15_0" type="internal" x="5.90" y="-1.90" incLanes=":J1_5_0 E0_1" intLanes=":J1_1_0 :J1_2_0 :J1_7_0 :J1_8_0 :J1_9_0 :J1_10_0 :J1_c1_0 :J1_c2_0"/>
    <junction id=":J1_16_0" type="internal" x="6.61" y="-5.56" incLanes=":J1_6_0" intLanes=":J1_2_0 :J1_10_0 :J1_c1_0 :J1_c2_0"/>
    <junction id=":J1_17_0" type="internal" x="-5.63" y="-3.81" incLanes=":J1_8_0 E2_1" intLanes=":J1_0_0 :J1_1_0 :J1_4_0 :J1_5_0 :J1_10_0 :J1_11_0 :J1_c2_0 :J1_c3_0"/>
    <junction id=":J1_18_0" type="internal" x="-8.54" y="-1.70" incLanes=":J1_9_0" intLanes=":J1_1_0 :J1_5_0 :J1_c2_0 :J1_c3_0"/>
    <junction id=":J1_19_0" type="internal" x="-5.90" y="1.90" incLanes=":J1_11_0 -E1_1" intLanes=":J1_1_0 :J1_2_0 :J1_3_0 :J1_4_0 :J1_7_0 :J1_8_0 :J1_c0_0 :J1_c3_0"/>

    <connection from="-E1" to="-E2" fromLane="1" toLane="1" via=":J1_3_0" tl="J1" linkIndex="3" dir="r" state="o"/>
    <connection from="-E1" to="-E0" fromLane="1" toLane="1" via=":J1_4_0" tl="J1" linkIndex="4" dir="s" state="o"/>
    <connection from="-E1" to="E3" fromLane="1" toLane="1" via=":J1_5_0" tl="J1" linkIndex="5" dir="l" state="o"/>
    <connection from="-E3" to="E1" fromLane="1" toLane="1" via=":J1_6_0" tl="J1" linkIndex="6" dir="r" state="o"/>
    <connection from="-E3" to="-E2" fromLane="1" toLane="1" via=":J1_7_0" tl="J1" linkIndex="7" dir="s" state="o"/>
    <connection from="-E3" to="-E0" fromLane="1" toLane="1" via=":J1_8_0" tl="J1" linkIndex="8" dir="l" state="o"/>
    <connection from="E0" to="E3" fromLane="1" toLane="1" via=":J1_9_0" tl="J1" linkIndex="9" dir="r" state="o"/>
    <connection from="E0" to="E1" fromLane="1" toLane="1" via=":J1_10_0" tl="J1" linkIndex="10" dir="s" state="o"/>
    <connection from="E0" to="-E2" fromLane="1" toLane="1" via=":J1_11_0" tl="J1" linkIndex="11" dir="l" state="o"/>
    <connection from="E2" to="-E0" fromLane="1" toLane="1" via=":J1_0_0" tl="J1" linkIndex="0" dir="r" state="o"/>
    <connection from="E2" to="E3" fromLane="1" toLane="1" via=":J1_1_0" tl="J1" linkIndex="1" dir="s" state="o"/>
    <connection from="E2" to="E1" fromLane="1" toLane="1" via=":J1_2_0" tl="J1" linkIndex="2" dir="l" state="o"/>

    <connection from=":J1_0" to="-E0" fromLane="0" toLane="1" via=":J1_12_0" dir="r" state="m"/>
    <connection from=":J1_12" to="-E0" fromLane="0" toLane="1" dir="r" state="m"/>
    <connection from=":J1_1" to="E3" fromLane="0" toLane="1" dir="s" state="M"/>
    <connection from=":J1_2" to="E1" fromLane="0" toLane="1" via=":J1_13_0" dir="l" state="m"/>
    <connection from=":J1_13" to="E1" fromLane="0" toLane="1" dir="l" state="m"/>
    <connection from=":J1_3" to="-E2" fromLane="0" toLane="1" via=":J1_14_0" dir="r" state="m"/>
    <connection from=":J1_14" to="-E2" fromLane="0" toLane="1" dir="r" state="m"/>
    <connection from=":J1_4" to="-E0" fromLane="0" toLane="1" dir="s" state="M"/>
    <connection from=":J1_5" to="E3" fromLane="0" toLane="1" via=":J1_15_0" dir="l" state="m"/>
    <connection from=":J1_15" to="E3" fromLane="0" toLane="1" dir="l" state="m"/>
    <connection from=":J1_6" to="E1" fromLane="0" toLane="1" via=":J1_16_0" dir="r" state="m"/>
    <connection from=":J1_16" to="E1" fromLane="0" toLane="1" dir="r" state="m"/>
    <connection from=":J1_7" to="-E2" fromLane="0" toLane="1" dir="s" state="M"/>
    <connection from=":J1_8" to="-E0" fromLane="0" toLane="1" via=":J1_17_0" dir="l" state="m"/>
    <connection from=":J1_17" to="-E0" fromLane="0" toLane="1" dir="l" state="m"/>
    <connection from=":J1_9" to="E3" fromLane="0" toLane="1" via=":J1_18_0" dir="r" state="m"/>
    <connection from=":J1_18" to="E3" fromLane="0" toLane="1" dir="r" state="m"/>
    <connection from=":J1_10" to="E1" fromLane="0" toLane="1" dir="s" state="M"/>
    <connection from=":J1_11" to="-E2" fromLane="0" toLane="1" via=":J1_19_0" dir="l" state="m"/>
    <connection from=":J1_19" to="-E2" fromLane="0" toLane="1" dir="l" state="m"/>

    <connection from=":J0_w0" to="E0" fromLane="0" toLane="0" dir="s" state="M"/>
    <connection from="-E0" to=":J0_w0" fromLane="0" toLane="0" dir="s" state="M"/>
    <connection from=":J1_c0" to=":J1_w0" fromLane="0" toLane="0" dir="s" state="M"/>
    <connection from=":J1_c1" to=":J1_w1" fromLane="0" toLane="0" dir="s" state="M"/>
    <connection from=":J1_c2" to=":J1_w2" fromLane="0" toLane="0" dir="s" state="M"/>
    <connection from=":J1_c3" to=":J1_w3" fromLane="0" toLane="0" dir="s" state="M"/>
    <connection from=":J1_w0" to=":J1_c3" fromLane="0" toLane="0" tl="J1" linkIndex="15" dir="s" state="M"/>
    <connection from=":J1_w0" to="-E0" fromLane="0" toLane="0" dir="s" state="M"/>
    <connection from="E2" to=":J1_w0" fromLane="0" toLane="0" dir="s" state="M"/>
    <connection from=":J1_w1" to=":J1_c0" fromLane="0" toLane="0" tl="J1" linkIndex="12" dir="s" state="M"/>
    <connection from=":J1_w1" to="-E2" fromLane="0" toLane="0" dir="s" state="M"/>
    <connection from="-E1" to=":J1_w1" fromLane="0" toLane="0" dir="s" state="M"/>
    <connection from=":J1_w2" to=":J1_c1" fromLane="0" toLane="0" tl="J1" linkIndex="13" dir="s" state="M"/>
    <connection from=":J1_w2" to="E1" fromLane="0" toLane="0" dir="s" state="M"/>
    <connection from="-E3" to=":J1_w2" fromLane="0" toLane="0" dir="s" state="M"/>
    <connection from=":J1_w3" to=":J1_c2" fromLane="0" toLane="0" tl="J1" linkIndex="14" dir="s" state="M"/>
    <connection from=":J1_w3" to="E3" fromLane="0" toLane="0" dir="s" state="M"/>
    <connection from="E0" to=":J1_w3" fromLane="0" toLane="0" dir="s" state="M"/>
    <connection from=":J2_w0" to="-E1" fromLane="0" toLane="0" dir="s" state="M"/>
    <connection from="E1" to=":J2_w0" fromLane="0" toLane="0" dir="s" state="M"/>
    <connection from=":J3_w0" to="E2" fromLane="0" toLane="0" dir="s" state="M"/>
    <connection from="-E2" to=":J3_w0" fromLane="0" toLane="0" dir="s" state="M"/>
    <connection from=":J4_w0" to="-E3" fromLane="0" toLane="0" dir="s" state="M"/>
    <connection from="E3" to=":J4_w0" fromLane="0" toLane="0" dir="s" state="M"/>
</net>
