<?xml version="1.0" encoding="UTF-8"?>

<!-- generated on 2024-04-23 20:25:12 by Eclipse SUMO sumo Version 1.19.0
-->

<configuration xmlns:xsi="http://www.w3.org/2001/XMLSchema-instance" xsi:noNamespaceSchemaLocation="http://sumo.dlr.de/xsd/sumoConfiguration.xsd">

    <input>
        <net-file value="crossroads_test.net.xml"/>
        <route-files value="crossroads_test.rou.xml"/>
    </input>

</configuration>
