<?xml version="1.0" encoding="UTF-8"?>

<!-- generated on 2024-04-23 20:25:12 by Eclipse SUMO netedit Version 1.19.0
<configuration xmlns:xsi="http://www.w3.org/2001/XMLSchema-instance" xsi:noNamespaceSchemaLocation="http://sumo.dlr.de/xsd/neteditConfiguration.xsd">

    <input>
        <sumocfg-file value="C:\Users\nicki\source\repos\CPS_SUMO\Base_Network_Files\crossroads_test.sumocfg"/>
        <route-files value="C:\Users\nicki\source\repos\CPS_SUMO\Base_Network_Files\crossroads_test.rou.xml"/>
        <sumo-net-file value="C:\Users\nicki\source\repos\CPS_SUMO\Base_Network_Files\crossroads_test.net.xml"/>
    </input>

    <output>
        <output-file value="C:\Users\nicki\source\repos\CPS_SUMO\Base_Network_Files\crossroads_test.net.xml"/>
    </output>

    <processing>
        <geometry.min-radius.fix.railways value="false"/>
        <geometry.max-grade.fix value="false"/>
        <offset.disable-normalization value="true"/>
        <lefthand value="0"/>
    </processing>

    <junctions>
        <no-internal-links value="false"/>
        <no-turnarounds value="true"/>
        <junctions.corner-detail value="5"/>
        <junctions.limit-turn-speed value="5.50"/>
        <rectangular-lane-cut value="0"/>
    </junctions>

    <pedestrian>
        <walkingareas value="0"/>
    </pedestrian>

</configuration>
-->

<net version="1.16" junctionCornerDetail="5" limitTurnSpeed="5.50" xmlns:xsi="http://www.w3.org/2001/XMLSchema-instance" xsi:noNamespaceSchemaLocation="http://sumo.dlr.de/xsd/net_file.xsd">

    <location netOffset="0.00,0.00" convBoundary="-60.00,-60.00,60.00,60.00" origBoundary="-10000000000.00,-10000000000.00,10000000000.00,10000000000.00" projParameter="!"/>

    <edge id=":J0_0" function="internal">
        <lane id=":J0_0_0" index="0" disallow="pedestrian" speed="13.89" length="0.10" shape="-50.00,1.60 -50.00,1.60"/>
    </edge>
    <edge id=":J0_1" function="internal">
        <lane id=":J0_1_0" index="0" disallow="pedestrian" speed="13.89" length="0.10" shape="-50.00,-1.60 -50.00,-1.60"/>
    </edge>
    <edge id=":J0_w0" function="walkingarea">
        <lane id=":J0_w0_0" index="0" allow="pedestrian" speed="2.78" length="0.10" width="2.00" shape="-50.00,3.20 -50.00,5.20 -50.00,3.20"/>
    </edge>
    <edge id=":J0_w1" function="walkingarea">
        <lane id=":J0_w1_0" index="0" allow="pedestrian" speed="2.78" length="0.10" width="2.00" shape="-50.00,-3.20 -50.00,-5.20 -50.00,-3.20"/>
    </edge>
    <edge id=":J1_0" function="internal">
        <lane id=":J1_0_0" index="0" disallow="pedestrian" speed="6.51" length="4.75" shape="-1.60,7.20 -1.95,4.75 -3.00,3.00 -3.20,2.88"/>
    </edge>
    <edge id=":J1_1" function="internal">
        <lane id=":J1_1_0" index="0" disallow="pedestrian" speed="13.89" length="14.40" shape="-1.60,7.20 -1.60,-7.20"/>
    </edge>
    <edge id=":J1_2" function="internal">
        <lane id=":J1_2_0" index="0" disallow="pedestrian" speed="8.00" length="4.07" shape="-1.60,7.20 -1.05,3.35 -0.96,3.20"/>
    </edge>
    <edge id=":J1_12" function="internal">
        <lane id=":J1_12_0" index="0" disallow="pedestrian" speed="6.51" length="4.28" shape="-3.20,2.88 -4.75,1.95 -7.20,1.60"/>
    </edge>
    <edge id=":J1_13" function="internal">
        <lane id=":J1_13_0" index="0" disallow="pedestrian" speed="8.00" length="10.13" shape="-0.96,3.20 0.60,0.60 3.35,-1.05 7.20,-1.60"/>
    </edge>
    <edge id=":J1_3" function="internal">
        <lane id=":J1_3_0" index="0" disallow="pedestrian" speed="6.51" length="4.75" shape="7.20,1.60 4.75,1.95 3.00,3.00 2.88,3.20"/>
    </edge>
    <edge id=":J1_4" function="internal">
        <lane id=":J1_4_0" index="0" disallow="pedestrian" speed="13.89" length="14.40" shape="7.20,1.60 -7.20,1.60"/>
    </edge>
    <edge id=":J1_5" function="internal">
        <lane id=":J1_5_0" index="0" disallow="pedestrian" speed="8.00" length="4.07" shape="7.20,1.60 3.35,1.05 3.20,0.96"/>
    </edge>
    <edge id=":J1_14" function="internal">
        <lane id=":J1_14_0" index="0" disallow="pedestrian" speed="6.51" length="4.28" shape="2.88,3.20 1.95,4.75 1.60,7.20"/>
    </edge>
    <edge id=":J1_15" function="internal">
        <lane id=":J1_15_0" index="0" disallow="pedestrian" speed="8.00" length="10.13" shape="3.20,0.96 0.60,-0.60 -1.05,-3.35 -1.60,-7.20"/>
    </edge>
    <edge id=":J1_6" function="internal">
        <lane id=":J1_6_0" index="0" disallow="pedestrian" speed="6.51" length="4.75" shape="1.60,-7.20 1.95,-4.75 3.00,-3.00 3.20,-2.88"/>
    </edge>
    <edge id=":J1_7" function="internal">
        <lane id=":J1_7_0" index="0" disallow="pedestrian" speed="13.89" length="14.40" shape="1.60,-7.20 1.60,7.20"/>
    </edge>
    <edge id=":J1_8" function="internal">
        <lane id=":J1_8_0" index="0" disallow="pedestrian" speed="8.00" length="4.07" shape="1.60,-7.20 1.05,-3.35 0.96,-3.20"/>
    </edge>
    <edge id=":J1_16" function="internal">
        <lane id=":J1_16_0" index="0" disallow="pedestrian" speed="6.51" length="4.28" shape="3.20,-2.88 4.75,-1.95 7.20,-1.60"/>
    </edge>
    <edge id=":J1_17" function="internal">
        <lane id=":J1_17_0" index="0" disallow="pedestrian" speed="8.00" length="10.13" shape="0.96,-3.20 -0.60,-0.60 -3.35,1.05 -7.20,1.60"/>
    </edge>
    <edge id=":J1_9" function="internal">
        <lane id=":J1_9_0" index="0" disallow="pedestrian" speed="6.51" length="4.75" shape="-7.20,-1.60 -4.75,-1.95 -3.00,-3.00 -2.88,-3.20"/>
    </edge>
    <edge id=":J1_10" function="internal">
        <lane id=":J1_10_0" index="0" disallow="pedestrian" speed="13.89" length="14.40" shape="-7.20,-1.60 7.20,-1.60"/>
    </edge>
    <edge id=":J1_11" function="internal">
        <lane id=":J1_11_0" index="0" disallow="pedestrian" speed="8.00" length="4.07" shape="-7.20,-1.60 -3.35,-1.05 -3.20,-0.96"/>
    </edge>
    <edge id=":J1_18" function="internal">
        <lane id=":J1_18_0" index="0" disallow="pedestrian" speed="6.51" length="4.28" shape="-2.88,-3.20 -1.95,-4.75 -1.60,-7.20"/>
    </edge>
    <edge id=":J1_19" function="internal">
        <lane id=":J1_19_0" index="0" disallow="pedestrian" speed="8.00" length="10.13" shape="-3.20,-0.96 -0.60,0.60 1.05,3.35 1.60,7.20"/>
    </edge>
    <edge id=":J1_c0" function="crossing" crossingEdges="-E2 E2">
        <lane id=":J1_c0_0" index="0" allow="pedestrian" speed="2.78" length="6.40" width="4.00" shape="3.20,5.20 -3.20,5.20"/>
    </edge>
    <edge id=":J1_c1" function="crossing" crossingEdges="E1 -E1">
        <lane id=":J1_c1_0" index="0" allow="pedestrian" speed="2.78" length="6.40" width="4.00" shape="5.20,-3.20 5.20,3.20"/>
    </edge>
    <edge id=":J1_c2" function="crossing" crossingEdges="E3 -E3">
        <lane id=":J1_c2_0" index="0" allow="pedestrian" speed="2.78" length="6.40" width="4.00" shape="-3.20,-5.20 3.20,-5.20"/>
    </edge>
    <edge id=":J1_c3" function="crossing" crossingEdges="-E0 E0">
        <lane id=":J1_c3_0" index="0" allow="pedestrian" speed="2.78" length="6.40" width="4.00" shape="-5.20,3.20 -5.20,-3.20"/>
    </edge>
    <edge id=":J1_w0" function="walkingarea">
        <lane id=":J1_w0_0" index="0" allow="pedestrian" speed="2.78" length="3.30" width="4.00" shape="-7.20,3.20 -7.20,5.20 -5.20,7.20 -3.20,7.20 -3.31,5.98 -3.64,4.98 -4.20,4.20 -4.98,3.64 -5.98,3.31"/>
    </edge>
    <edge id=":J1_w1" function="walkingarea">
        <lane id=":J1_w1_0" index="0" allow="pedestrian" speed="2.78" length="3.30" width="4.00" shape="3.20,7.20 5.20,7.20 7.20,5.20 7.20,3.20 5.98,3.31 4.98,3.64 4.20,4.20 3.64,4.98 3.31,5.98"/>
    </edge>
    <edge id=":J1_w2" function="walkingarea">
        <lane id=":J1_w2_0" index="0" allow="pedestrian" speed="2.78" length="3.30" width="4.00" shape="7.20,-3.20 7.20,-5.20 5.20,-7.20 3.20,-7.20 3.31,-5.98 3.64,-4.98 4.20,-4.20 4.98,-3.64 5.98,-3.31"/>
    </edge>
    <edge id=":J1_w3" function="walkingarea">
        <lane id=":J1_w3_0" index="0" allow="pedestrian" speed="2.78" length="3.30" width="4.00" shape="-3.20,-7.20 -5.20,-7.20 -7.20,-5.20 -7.20,-3.20 -5.98,-3.31 -4.98,-3.64 -4.20,-4.20 -3.64,-4.98 -3.31,-5.98"/>
    </edge>
    <edge id=":J2_0" function="internal">
        <lane id=":J2_0_0" index="0" disallow="pedestrian" speed="13.89" length="0.10" shape="50.00,1.60 50.00,1.60"/>
    </edge>
    <edge id=":J2_1" function="internal">
        <lane id=":J2_1_0" index="0" disallow="pedestrian" speed="13.89" length="0.10" shape="50.00,-1.60 50.00,-1.60"/>
    </edge>
    <edge id=":J2_w0" function="walkingarea">
        <lane id=":J2_w0_0" index="0" allow="pedestrian" speed="2.78" length="0.10" width="2.00" shape="50.00,3.20 50.00,5.20 50.00,3.20"/>
    </edge>
    <edge id=":J2_w1" function="walkingarea">
        <lane id=":J2_w1_0" index="0" allow="pedestrian" speed="2.78" length="0.10" width="2.00" shape="50.00,-3.20 50.00,-5.20 50.00,-3.20"/>
    </edge>
    <edge id=":J3_0" function="internal">
        <lane id=":J3_0_0" index="0" disallow="pedestrian" speed="13.89" length="0.10" shape="-1.60,50.00 -1.60,50.00"/>
    </edge>
    <edge id=":J3_1" function="internal">
        <lane id=":J3_1_0" index="0" disallow="pedestrian" speed="13.89" length="0.10" shape="1.60,50.00 1.60,50.00"/>
    </edge>
    <edge id=":J3_w0" function="walkingarea">
        <lane id=":J3_w0_0" index="0" allow="pedestrian" speed="2.78" length="0.10" width="2.00" shape="-3.20,50.00 -5.20,50.00 -3.20,50.00"/>
    </edge>
    <edge id=":J3_w1" function="walkingarea">
        <lane id=":J3_w1_0" index="0" allow="pedestrian" speed="2.78" length="0.10" width="2.00" shape="3.20,50.00 5.20,50.00 3.20,50.00"/>
    </edge>
    <edge id=":J4_0" function="internal">
        <lane id=":J4_0_0" index="0" disallow="pedestrian" speed="13.89" length="0.10" shape="-1.60,-50.00 -1.60,-50.00"/>
    </edge>
    <edge id=":J4_1" function="internal">
        <lane id=":J4_1_0" index="0" disallow="pedestrian" speed="13.89" length="0.10" shape="1.60,-50.00 1.60,-50.00"/>
    </edge>
    <edge id=":J4_w0" function="walkingarea">
        <lane id=":J4_w0_0" index="0" allow="pedestrian" speed="2.78" length="0.10" width="2.00" shape="-3.20,-50.00 -5.20,-50.00 -3.20,-50.00"/>
    </edge>
    <edge id=":J4_w1" function="walkingarea">
        <lane id=":J4_w1_0" index="0" allow="pedestrian" speed="2.78" length="0.10" width="2.00" shape="3.20,-50.00 5.20,-50.00 3.20,-50.00"/>
    </edge>
    <edge id=":J5_w0" function="walkingarea">
        <lane id=":J5_w0_0" index="0" allow="pedestrian" speed="2.78" length="8.40" width="2.00" shape="60.00,3.20 60.00,5.20 60.00,-5.20 60.00,-3.20"/>
    </edge>
    <edge id=":J6_w0" function="walkingarea">
        <lane id=":J6_w0_0" index="0" allow="pedestrian" speed="2.78" length="8.40" width="2.00" shape="-60.00,-3.20 -60.00,-5.20 -60.00,5.20 -60.00,3.20"/>
    </edge>
    <edge id=":J7_w0" function="walkingarea">
        <lane id=":J7_w0_0" index="0" allow="pedestrian" speed="2.78" length="8.40" width="2.00" shape="-3.20,60.00 -5.20,60.00 5.20,60.00 3.20,60.00"/>
    </edge>
    <edge id=":J8_w0" function="walkingarea">
        <lane id=":J8_w0_0" index="0" allow="pedestrian" speed="2.78" length="8.40" width="2.00" shape="3.20,-60.00 5.20,-60.00 -5.20,-60.00 -3.20,-60.00"/>
    </edge>

    <edge id="-E0" from="J1" to="J0" priority="-1">
        <lane id="-E0_0" index="0" allow="pedestrian" speed="13.89" length="42.80" width="2.00" shape="-7.20,4.20 -50.00,4.20"/>
        <lane id="-E0_1" index="1" disallow="pedestrian" speed="13.89" length="42.80" shape="-7.20,1.60 -50.00,1.60"/>
    </edge>
    <edge id="-E1" from="J2" to="J1" priority="-1">
        <lane id="-E1_0" index="0" allow="pedestrian" speed="13.89" length="42.80" width="2.00" shape="50.00,4.20 7.20,4.20"/>
        <lane id="-E1_1" index="1" disallow="pedestrian" speed="13.89" length="42.80" shape="50.00,1.60 7.20,1.60"/>
    </edge>
    <edge id="-E2" from="J1" to="J3" priority="-1">
        <lane id="-E2_0" index="0" allow="pedestrian" speed="13.89" length="42.80" width="2.00" shape="4.20,7.20 4.20,50.00"/>
        <lane id="-E2_1" index="1" disallow="pedestrian" speed="13.89" length="42.80" shape="1.60,7.20 1.60,50.00"/>
    </edge>
    <edge id="-E3" from="J4" to="J1" priority="-1">
        <lane id="-E3_0" index="0" allow="pedestrian" speed="13.89" length="42.80" width="2.00" shape="4.20,-50.00 4.20,-7.20"/>
        <lane id="-E3_1" index="1" disallow="pedestrian" speed="13.89" length="42.80" shape="1.60,-50.00 1.60,-7.20"/>
    </edge>
    <edge id="-E4" from="J2" to="J5" priority="-1">
        <lane id="-E4_0" index="0" allow="pedestrian" speed="13.89" length="10.00" width="2.00" shape="50.00,-4.20 60.00,-4.20"/>
        <lane id="-E4_1" index="1" disallow="pedestrian" speed="13.89" length="10.00" shape="50.00,-1.60 60.00,-1.60"/>
    </edge>
    <edge id="-E5" from="J0" to="J6" priority="-1">
        <lane id="-E5_0" index="0" allow="pedestrian" speed="13.89" length="10.00" width="2.00" shape="-50.00,4.20 -60.00,4.20"/>
        <lane id="-E5_1" index="1" disallow="pedestrian" speed="13.89" length="10.00" shape="-50.00,1.60 -60.00,1.60"/>
    </edge>
    <edge id="-E6" from="J3" to="J7" priority="-1">
        <lane id="-E6_0" index="0" allow="pedestrian" speed="13.89" length="10.00" width="2.00" shape="4.20,50.00 4.20,60.00"/>
        <lane id="-E6_1" index="1" disallow="pedestrian" speed="13.89" length="10.00" shape="1.60,50.00 1.60,60.00"/>
    </edge>
    <edge id="-E7" from="J4" to="J8" priority="-1">
        <lane id="-E7_0" index="0" allow="pedestrian" speed="13.89" length="10.00" width="2.00" shape="-4.20,-50.00 -4.20,-60.00"/>
        <lane id="-E7_1" index="1" disallow="pedestrian" speed="13.89" length="10.00" shape="-1.60,-50.00 -1.60,-60.00"/>
    </edge>
    <edge id="E0" from="J0" to="J1" priority="-1">
        <lane id="E0_0" index="0" allow="pedestrian" speed="13.89" length="42.80" width="2.00" shape="-50.00,-4.20 -7.20,-4.20"/>
        <lane id="E0_1" index="1" disallow="pedestrian" speed="13.89" length="42.80" shape="-50.00,-1.60 -7.20,-1.60"/>
    </edge>
    <edge id="E1" from="J1" to="J2" priority="-1">
        <lane id="E1_0" index="0" allow="pedestrian" speed="13.89" length="42.80" width="2.00" shape="7.20,-4.20 50.00,-4.20"/>
        <lane id="E1_1" index="1" disallow="pedestrian" speed="13.89" length="42.80" shape="7.20,-1.60 50.00,-1.60"/>
    </edge>
    <edge id="E2" from="J3" to="J1" priority="-1">
        <lane id="E2_0" index="0" allow="pedestrian" speed="13.89" length="42.80" width="2.00" shape="-4.20,50.00 -4.20,7.20"/>
        <lane id="E2_1" index="1" disallow="pedestrian" speed="13.89" length="42.80" shape="-1.60,50.00 -1.60,7.20"/>
    </edge>
    <edge id="E3" from="J1" to="J4" priority="-1">
        <lane id="E3_0" index="0" allow="pedestrian" speed="13.89" length="42.80" width="2.00" shape="-4.20,-7.20 -4.20,-50.00"/>
        <lane id="E3_1" index="1" disallow="pedestrian" speed="13.89" length="42.80" shape="-1.60,-7.20 -1.60,-50.00"/>
    </edge>
    <edge id="E4" from="J5" to="J2" priority="-1">
        <lane id="E4_0" index="0" allow="pedestrian" speed="13.89" length="10.00" width="2.00" shape="60.00,4.20 50.00,4.20"/>
        <lane id="E4_1" index="1" disallow="pedestrian" speed="13.89" length="10.00" shape="60.00,1.60 50.00,1.60"/>
    </edge>
    <edge id="E5" from="J6" to="J0" priority="-1">
        <lane id="E5_0" index="0" allow="pedestrian" speed="13.89" length="10.00" width="2.00" shape="-60.00,-4.20 -50.00,-4.20"/>
        <lane id="E5_1" index="1" disallow="pedestrian" speed="13.89" length="10.00" shape="-60.00,-1.60 -50.00,-1.60"/>
    </edge>
    <edge id="E6" from="J7" to="J3" priority="-1">
        <lane id="E6_0" index="0" allow="pedestrian" speed="13.89" length="10.00" width="2.00" shape="-4.20,60.00 -4.20,50.00"/>
        <lane id="E6_1" index="1" disallow="pedestrian" speed="13.89" length="10.00" shape="-1.60,60.00 -1.60,50.00"/>
    </edge>
    <edge id="E7" from="J8" to="J4" priority="-1">
        <lane id="E7_0" index="0" allow="pedestrian" speed="13.89" length="10.00" width="2.00" shape="4.20,-60.00 4.20,-50.00"/>
        <lane id="E7_1" index="1" disallow="pedestrian" speed="13.89" length="10.00" shape="1.60,-60.00 1.60,-50.00"/>
    </edge>

    <tlLogic id="J1" type="static" programID="0" offset="0">
        <phase duration="37" state="gGgrrrgGgrrrrGrG"/>
        <phase duration="5"  state="gGgrrrgGgrrrrrrr"/>
        <phase duration="3"  state="yyyrrryyyrrrrrrr"/>
        <phase duration="37" state="rrrgGgrrrgGgGrGr"/>
        <phase duration="5"  state="rrrgGgrrrgGgrrrr"/>
        <phase duration="3"  state="rrryyyrrryyyrrrr"/>
    </tlLogic>

    <junction id="J0" type="priority" x="-50.00" y="0.00" incLanes="-E0_0 -E0_1 E5_0 E5_1" intLanes=":J0_0_0 :J0_1_0" shape="-50.00,5.20 -50.00,-5.20 -50.00,5.20">
        <request index="0" response="00" foes="00" cont="0"/>
        <request index="1" response="00" foes="00" cont="0"/>
    </junction>
    <junction id="J1" type="traffic_light" x="0.00" y="0.00" incLanes="E2_0 E2_1 -E1_0 -E1_1 -E3_0 -E3_1 E0_0 E0_1 :J1_w1_0 :J1_w2_0 :J1_w3_0 :J1_w0_0" intLanes=":J1_12_0 :J1_1_0 :J1_13_0 :J1_14_0 :J1_4_0 :J1_15_0 :J1_16_0 :J1_7_0 :J1_17_0 :J1_18_0 :J1_10_0 :J1_19_0 :J1_c0_0 :J1_c1_0 :J1_c2_0 :J1_c3_0" shape="-5.20,7.20 5.20,7.20 5.42,6.09 5.70,5.70 6.09,5.42 6.59,5.26 7.20,5.20 7.20,-5.20 6.09,-5.42 5.70,-5.70 5.42,-6.09 5.26,-6.59 5.20,-7.20 -5.20,-7.20 -5.42,-6.09 -5.70,-5.70 -6.09,-5.42 -6.59,-5.26 -7.20,-5.20 -7.20,5.20 -6.09,5.42 -5.70,5.70 -5.42,6.09 -5.26,6.59">
        <request index="0"  response="1001000000000000" foes="1001000100010000" cont="1"/>
        <request index="1"  response="0101101000100000" foes="0101111100110000" cont="0"/>
        <request index="2"  response="0011100011100000" foes="0011110111110000" cont="1"/>
        <request index="3"  response="0011000010000000" foes="0011100010000000" cont="1"/>
        <request index="4"  response="1010000110000111" foes="1010100110000111" cont="0"/>
        <request index="5"  response="0110111110000110" foes="0110111110000110" cont="1"/>
        <request index="6"  response="0110000000000000" foes="0110010000000100" cont="1"/>
        <request index="7"  response="0101100000101000" foes="0101110000111100" cont="0"/>
        <request index="8"  response="1100100000100111" foes="1100110000110111" cont="1"/>
        <request index="9"  response="1100000000000010" foes="1100000000100010" cont="1"/>
        <request index="10" response="1010000111000110" foes="1010000111100110" cont="0"/>
        <request index="11" response="1001000110011110" foes="1001000110111110" cont="1"/>
        <request index="12" response="0000000000000000" foes="0000100010001111" cont="0"/>
        <request index="13" response="0000000000000000" foes="0000010001111100" cont="0"/>
        <request index="14" response="0000000000000000" foes="0000001111100010" cont="0"/>
        <request index="15" response="0000000000000000" foes="0000111100010001" cont="0"/>
    </junction>
    <junction id="J2" type="priority" x="50.00" y="0.00" incLanes="E4_0 E4_1 E1_0 E1_1" intLanes=":J2_0_0 :J2_1_0" shape="50.00,5.20 50.00,-5.20 50.00,5.20">
        <request index="0" response="00" foes="00" cont="0"/>
        <request index="1" response="00" foes="00" cont="0"/>
    </junction>
    <junction id="J3" type="priority" x="0.00" y="50.00" incLanes="E6_0 E6_1 -E2_0 -E2_1" intLanes=":J3_0_0 :J3_1_0" shape="-5.20,50.00 5.20,50.00 -5.20,50.00">
        <request index="0" response="00" foes="00" cont="0"/>
        <request index="1" response="00" foes="00" cont="0"/>
    </junction>
    <junction id="J4" type="priority" x="0.00" y="-50.00" incLanes="E3_0 E3_1 E7_0 E7_1" intLanes=":J4_0_0 :J4_1_0" shape="-5.20,-50.00 5.20,-50.00 -5.20,-50.00">
        <request index="0" response="00" foes="00" cont="0"/>
        <request index="1" response="00" foes="00" cont="0"/>
    </junction>
    <junction id="J5" type="dead_end" x="60.00" y="0.00" incLanes="-E4_0 -E4_1" intLanes="" shape="60.00,0.00 60.00,-5.20 60.00,0.00"/>
    <junction id="J6" type="dead_end" x="-60.00" y="0.00" incLanes="-E5_0 -E5_1" intLanes="" shape="-60.00,0.00 -60.00,5.20 -60.00,0.00"/>
    <junction id="J7" type="dead_end" x="0.00" y="60.00" incLanes="-E6_0 -E6_1" intLanes="" shape="0.00,60.00 5.20,60.00 0.00,60.00"/>
    <junction id="J8" type="dead_end" x="0.00" y="-60.00" incLanes="-E7_0 -E7_1" intLanes="" shape="0.00,-60.00 -5.20,-60.00 0.00,-60.00"/>

    <junction id=":J1_12_0" type="internal" x="-3.20" y="2.88" incLanes=":J1_0_0" intLanes=":J1_4_0 :J1_8_0 :J1_c0_0 :J1_c3_0"/>
    <junction id=":J1_13_0" type="internal" x="-0.96" y="3.20" incLanes=":J1_2_0 -E3_1" intLanes=":J1_4_0 :J1_5_0 :J1_6_0 :J1_7_0 :J1_10_0 :J1_11_0 :J1_c0_0 :J1_c1_0"/>
    <junction id=":J1_14_0" type="internal" x="2.88" y="3.20" incLanes=":J1_3_0" intLanes=":J1_7_0 :J1_11_0 :J1_c0_0 :J1_c1_0"/>
    <junction id=":J1_15_0" type="internal" x="3.20" y="0.96" incLanes=":J1_5_0 E0_1" intLanes=":J1_1_0 :J1_2_0 :J1_7_0 :J1_8_0 :J1_9_0 :J1_10_0 :J1_c1_0 :J1_c2_0"/>
    <junction id=":J1_16_0" type="internal" x="3.20" y="-2.88" incLanes=":J1_6_0" intLanes=":J1_2_0 :J1_10_0 :J1_c1_0 :J1_c2_0"/>
    <junction id=":J1_17_0" type="internal" x="0.96" y="-3.20" incLanes=":J1_8_0 E2_1" intLanes=":J1_0_0 :J1_1_0 :J1_4_0 :J1_5_0 :J1_10_0 :J1_11_0 :J1_c2_0 :J1_c3_0"/>
    <junction id=":J1_18_0" type="internal" x="-2.88" y="-3.20" incLanes=":J1_9_0" intLanes=":J1_1_0 :J1_5_0 :J1_c2_0 :J1_c3_0"/>
    <junction id=":J1_19_0" type="internal" x="-3.20" y="-0.96" incLanes=":J1_11_0 -E1_1" intLanes=":J1_1_0 :J1_2_0 :J1_3_0 :J1_4_0 :J1_7_0 :J1_8_0 :J1_c0_0 :J1_c3_0"/>

    <connection from="-E0" to="-E5" fromLane="1" toLane="1" via=":J0_0_0" dir="s" state="M"/>
    <connection from="-E1" to="-E2" fromLane="1" toLane="1" via=":J1_3_0" tl="J1" linkIndex="3" dir="r" state="o"/>
    <connection from="-E1" to="-E0" fromLane="1" toLane="1" via=":J1_4_0" tl="J1" linkIndex="4" dir="s" state="o"/>
    <connection from="-E1" to="E3" fromLane="1" toLane="1" via=":J1_5_0" tl="J1" linkIndex="5" dir="l" state="o"/>
    <connection from="-E2" to="-E6" fromLane="1" toLane="1" via=":J3_1_0" dir="s" state="M"/>
    <connection from="-E3" to="E1" fromLane="1" toLane="1" via=":J1_6_0" tl="J1" linkIndex="6" dir="r" state="o"/>
    <connection from="-E3" to="-E2" fromLane="1" toLane="1" via=":J1_7_0" tl="J1" linkIndex="7" dir="s" state="o"/>
    <connection from="-E3" to="-E0" fromLane="1" toLane="1" via=":J1_8_0" tl="J1" linkIndex="8" dir="l" state="o"/>
    <connection from="E0" to="E3" fromLane="1" toLane="1" via=":J1_9_0" tl="J1" linkIndex="9" dir="r" state="o"/>
    <connection from="E0" to="E1" fromLane="1" toLane="1" via=":J1_10_0" tl="J1" linkIndex="10" dir="s" state="o"/>
    <connection from="E0" to="-E2" fromLane="1" toLane="1" via=":J1_11_0" tl="J1" linkIndex="11" dir="l" state="o"/>
    <connection from="E1" to="-E4" fromLane="1" toLane="1" via=":J2_1_0" dir="s" state="M"/>
    <connection from="E2" to="-E0" fromLane="1" toLane="1" via=":J1_0_0" tl="J1" linkIndex="0" dir="r" state="o"/>
    <connection from="E2" to="E3" fromLane="1" toLane="1" via=":J1_1_0" tl="J1" linkIndex="1" dir="s" state="o"/>
    <connection from="E2" to="E1" fromLane="1" toLane="1" via=":J1_2_0" tl="J1" linkIndex="2" dir="l" state="o"/>
    <connection from="E3" to="-E7" fromLane="1" toLane="1" via=":J4_0_0" dir="s" state="M"/>
    <connection from="E4" to="-E1" fromLane="1" toLane="1" via=":J2_0_0" dir="s" state="M"/>
    <connection from="E5" to="E0" fromLane="1" toLane="1" via=":J0_1_0" dir="s" state="M"/>
    <connection from="E6" to="E2" fromLane="1" toLane="1" via=":J3_0_0" dir="s" state="M"/>
    <connection from="E7" to="-E3" fromLane="1" toLane="1" via=":J4_1_0" dir="s" state="M"/>

    <connection from=":J0_0" to="-E5" fromLane="0" toLane="1" dir="s" state="M"/>
    <connection from=":J0_1" to="E0" fromLane="0" toLane="1" dir="s" state="M"/>
    <connection from=":J1_0" to="-E0" fromLane="0" toLane="1" via=":J1_12_0" dir="r" state="m"/>
    <connection from=":J1_12" to="-E0" fromLane="0" toLane="1" dir="r" state="m"/>
    <connection from=":J1_1" to="E3" fromLane="0" toLane="1" dir="s" state="M"/>
    <connection from=":J1_2" to="E1" fromLane="0" toLane="1" via=":J1_13_0" dir="l" state="m"/>
    <connection from=":J1_13" to="E1" fromLane="0" toLane="1" dir="l" state="m"/>
    <connection from=":J1_3" to="-E2" fromLane="0" toLane="1" via=":J1_14_0" dir="r" state="m"/>
    <connection from=":J1_14" to="-E2" fromLane="0" toLane="1" dir="r" state="m"/>
    <connection from=":J1_4" to="-E0" fromLane="0" toLane="1" dir="s" state="M"/>
    <connection from=":J1_5" to="E3" fromLane="0" toLane="1" via=":J1_15_0" dir="l" state="m"/>
    <connection from=":J1_15" to="E3" fromLane="0" toLane="1" dir="l" state="m"/>
    <connection from=":J1_6" to="E1" fromLane="0" toLane="1" via=":J1_16_0" dir="r" state="m"/>
    <connection from=":J1_16" to="E1" fromLane="0" toLane="1" dir="r" state="m"/>
    <connection from=":J1_7" to="-E2" fromLane="0" toLane="1" dir="s" state="M"/>
    <connection from=":J1_8" to="-E0" fromLane="0" toLane="1" via=":J1_17_0" dir="l" state="m"/>
    <connection from=":J1_17" to="-E0" fromLane="0" toLane="1" dir="l" state="m"/>
    <connection from=":J1_9" to="E3" fromLane="0" toLane="1" via=":J1_18_0" dir="r" state="m"/>
    <connection from=":J1_18" to="E3" fromLane="0" toLane="1" dir="r" state="m"/>
    <connection from=":J1_10" to="E1" fromLane="0" toLane="1" dir="s" state="M"/>
    <connection from=":J1_11" to="-E2" fromLane="0" toLane="1" via=":J1_19_0" dir="l" state="m"/>
    <connection from=":J1_19" to="-E2" fromLane="0" toLane="1" dir="l" state="m"/>
    <connection from=":J2_0" to="-E1" fromLane="0" toLane="1" dir="s" state="M"/>
    <connection from=":J2_1" to="-E4" fromLane="0" toLane="1" dir="s" state="M"/>
    <connection from=":J3_0" to="E2" fromLane="0" toLane="1" dir="s" state="M"/>
    <connection from=":J3_1" to="-E6" fromLane="0" toLane="1" dir="s" state="M"/>
    <connection from=":J4_0" to="-E7" fromLane="0" toLane="1" dir="s" state="M"/>
    <connection from=":J4_1" to="-E3" fromLane="0" toLane="1" dir="s" state="M"/>

    <connection from=":J0_w0" to="-E5" fromLane="0" toLane="0" dir="s" state="M"/>
    <connection from="-E0" to=":J0_w0" fromLane="0" toLane="0" dir="s" state="M"/>
    <connection from=":J0_w1" to="E0" fromLane="0" toLane="0" dir="s" state="M"/>
    <connection from="E5" to=":J0_w1" fromLane="0" toLane="0" dir="s" state="M"/>
    <connection from=":J1_c0" to=":J1_w0" fromLane="0" toLane="0" dir="s" state="M"/>
    <connection from=":J1_c1" to=":J1_w1" fromLane="0" toLane="0" dir="s" state="M"/>
    <connection from=":J1_c2" to=":J1_w2" fromLane="0" toLane="0" dir="s" state="M"/>
    <connection from=":J1_c3" to=":J1_w3" fromLane="0" toLane="0" dir="s" state="M"/>
    <connection from=":J1_w0" to=":J1_c3" fromLane="0" toLane="0" tl="J1" linkIndex="15" dir="s" state="M"/>
    <connection from=":J1_w0" to="-E0" fromLane="0" toLane="0" dir="s" state="M"/>
    <connection from="E2" to=":J1_w0" fromLane="0" toLane="0" dir="s" state="M"/>
    <connection from=":J1_w1" to=":J1_c0" fromLane="0" toLane="0" tl="J1" linkIndex="12" dir="s" state="M"/>
    <connection from=":J1_w1" to="-E2" fromLane="0" toLane="0" dir="s" state="M"/>
    <connection from="-E1" to=":J1_w1" fromLane="0" toLane="0" dir="s" state="M"/>
    <connection from=":J1_w2" to=":J1_c1" fromLane="0" toLane="0" tl="J1" linkIndex="13" dir="s" state="M"/>
    <connection from=":J1_w2" to="E1" fromLane="0" toLane="0" dir="s" state="M"/>
    <connection from="-E3" to=":J1_w2" fromLane="0" toLane="0" dir="s" state="M"/>
    <connection from=":J1_w3" to=":J1_c2" fromLane="0" toLane="0" tl="J1" linkIndex="14" dir="s" state="M"/>
    <connection from=":J1_w3" to="E3" fromLane="0" toLane="0" dir="s" state="M"/>
    <connection from="E0" to=":J1_w3" fromLane="0" toLane="0" dir="s" state="M"/>
    <connection from=":J2_w0" to="-E1" fromLane="0" toLane="0" dir="s" state="M"/>
    <connection from="E4" to=":J2_w0" fromLane="0" toLane="0" dir="s" state="M"/>
    <connection from=":J2_w1" to="-E4" fromLane="0" toLane="0" dir="s" state="M"/>
    <connection from="E1" to=":J2_w1" fromLane="0" toLane="0" dir="s" state="M"/>
    <connection from=":J3_w0" to="E2" fromLane="0" toLane="0" dir="s" state="M"/>
    <connection from="E6" to=":J3_w0" fromLane="0" toLane="0" dir="s" state="M"/>
    <connection from=":J3_w1" to="-E6" fromLane="0" toLane="0" dir="s" state="M"/>
    <connection from="-E2" to=":J3_w1" fromLane="0" toLane="0" dir="s" state="M"/>
    <connection from=":J4_w0" to="-E7" fromLane="0" toLane="0" dir="s" state="M"/>
    <connection from="E3" to=":J4_w0" fromLane="0" toLane="0" dir="s" state="M"/>
    <connection from=":J4_w1" to="-E3" fromLane="0" toLane="0" dir="s" state="M"/>
    <connection from="E7" to=":J4_w1" fromLane="0" toLane="0" dir="s" state="M"/>
    <connection from=":J5_w0" to="E4" fromLane="0" toLane="0" dir="s" state="M"/>
    <connection from="-E4" to=":J5_w0" fromLane="0" toLane="0" dir="s" state="M"/>
    <connection from=":J6_w0" to="E5" fromLane="0" toLane="0" dir="s" state="M"/>
    <connection from="-E5" to=":J6_w0" fromLane="0" toLane="0" dir="s" state="M"/>
    <connection from=":J7_w0" to="E6" fromLane="0" toLane="0" dir="s" state="M"/>
    <connection from="-E6" to=":J7_w0" fromLane="0" toLane="0" dir="s" state="M"/>
    <connection from=":J8_w0" to="E7" fromLane="0" toLane="0" dir="s" state="M"/>
    <connection from="-E7" to=":J8_w0" fromLane="0" toLane="0" dir="s" state="M"/>
</net>
