<?xml version="1.0" encoding="UTF-8"?>

<!-- generated on 2024-04-23 20:25:12 by Eclipse SUMO netedit Version 1.19.0
-->

<routes xmlns:xsi="http://www.w3.org/2001/XMLSchema-instance" xsi:noNamespaceSchemaLocation="http://sumo.dlr.de/xsd/routes_file.xsd">
    <!-- Vehicles, persons and containers (sorted by depart) -->
    <personFlow id="pf_0" begin="0.00" end="3600.00" personsPerHour="1800">
        <walk edges="-E4 E1 E0 E5"/>
    </personFlow>
</routes>
