<?xml version="1.0" encoding="UTF-8"?>

<!-- generated on 2024-04-23 19:56:34 by Eclipse SUMO netedit Version 1.19.0
<configuration xmlns:xsi="http://www.w3.org/2001/XMLSchema-instance" xsi:noNamespaceSchemaLocation="http://sumo.dlr.de/xsd/neteditConfiguration.xsd">

    <input>
        <sumo-net-file value="C:\Users\nicki\source\repos\CPS_SUMO\Base_Network_Files\dummy_file.net.xml"/>
    </input>

    <output>
        <output-file value="C:\Users\nicki\source\repos\CPS_SUMO\Base_Network_Files\dummy_file.net.xml"/>
    </output>

    <processing>
        <offset.disable-normalization value="true"/>
    </processing>

    <junctions>
        <no-turnarounds value="true"/>
    </junctions>

    <netedit>
        <new-network value="false"/>
    </netedit>

</configuration>
-->

<net version="1.16" junctionCornerDetail="5" limitTurnSpeed="5.50" xmlns:xsi="http://www.w3.org/2001/XMLSchema-instance" xsi:noNamespaceSchemaLocation="http://sumo.dlr.de/xsd/net_file.xsd">

    <location netOffset="0.00,0.00" convBoundary="-50.55,-50.00,50.00,50.44" origBoundary="10000000000.00,10000000000.00,-10000000000.00,-10000000000.00" projParameter="!"/>

    <edge id=":J7_0" function="internal">
        <lane id=":J7_0_0" index="0" speed="7.58" length="12.63" shape="-1.60,9.24 -2.10,5.90 -3.60,3.51 -6.11,2.08 -9.62,1.60"/>
    </edge>
    <edge id=":J7_1" function="internal">
        <lane id=":J7_1_0" index="0" speed="13.89" length="18.30" shape="-1.60,9.24 -1.60,-9.05"/>
    </edge>
    <edge id=":J7_2" function="internal">
        <lane id=":J7_2_0" index="0" speed="8.82" length="4.79" shape="-1.60,9.24 -0.92,4.50"/>
    </edge>
    <edge id=":J7_12" function="internal">
        <lane id=":J7_12_0" index="0" speed="8.82" length="12.69" shape="-0.92,4.50 1.11,1.11 4.49,-0.92 9.23,-1.60"/>
    </edge>
    <edge id=":J7_3" function="internal">
        <lane id=":J7_3_0" index="0" speed="7.49" length="12.32" shape="9.23,1.60 5.89,2.08 3.51,3.51 2.08,5.90 1.60,9.24"/>
    </edge>
    <edge id=":J7_4" function="internal">
        <lane id=":J7_4_0" index="0" speed="13.89" length="18.85" shape="9.23,1.60 -9.62,1.60"/>
    </edge>
    <edge id=":J7_5" function="internal">
        <lane id=":J7_5_0" index="0" speed="8.79" length="17.33" shape="9.23,1.60 4.49,0.93 1.11,-1.06 -0.92,-4.39 -1.60,-9.05"/>
    </edge>
    <edge id=":J7_6" function="internal">
        <lane id=":J7_6_0" index="0" speed="7.45" length="12.16" shape="1.60,-9.05 2.08,-5.79 3.51,-3.46 5.89,-2.07 9.23,-1.60"/>
    </edge>
    <edge id=":J7_7" function="internal">
        <lane id=":J7_7_0" index="0" speed="13.89" length="18.30" shape="1.60,-9.05 1.60,9.24"/>
    </edge>
    <edge id=":J7_8" function="internal">
        <lane id=":J7_8_0" index="0" speed="8.86" length="4.59" shape="1.60,-9.05 0.92,-4.51"/>
    </edge>
    <edge id=":J7_13" function="internal">
        <lane id=":J7_13_0" index="0" speed="8.86" length="13.05" shape="0.92,-4.51 0.90,-4.39 -1.20,-1.06 -4.71,0.93 -9.62,1.60"/>
    </edge>
    <edge id=":J7_9" function="internal">
        <lane id=":J7_9_0" index="0" speed="7.54" length="12.48" shape="-9.62,-1.60 -6.11,-2.07 -3.60,-3.46 -2.10,-5.79 -1.60,-9.05"/>
    </edge>
    <edge id=":J7_10" function="internal">
        <lane id=":J7_10_0" index="0" speed="13.89" length="18.85" shape="-9.62,-1.60 9.23,-1.60"/>
    </edge>
    <edge id=":J7_11" function="internal">
        <lane id=":J7_11_0" index="0" speed="8.90" length="17.79" shape="-9.62,-1.60 -4.71,-0.92 -1.20,1.11 0.90,4.50 1.60,9.24"/>
    </edge>

    <edge id="-E12" from="J21" to="J22" priority="-1">
        <lane id="-E12_0" index="0" allow="pedestrian" speed="13.89" length="44.92" shape="-5.50,4.75 -5.98,49.67"/>
    </edge>
    <edge id="-E13" from="J23" to="J21" priority="-1">
        <lane id="-E13_0" index="0" allow="pedestrian" speed="13.89" length="45.00" shape="-5.98,-49.75 -5.50,-4.75"/>
    </edge>
    <edge id="-E14" from="J20" to="J24" priority="-1">
        <lane id="-E14_0" index="0" allow="pedestrian" speed="13.89" length="45.70" shape="8.33,4.72 9.05,50.42"/>
    </edge>
    <edge id="-E15" from="J25" to="J20" priority="-1">
        <lane id="-E15_0" index="0" allow="pedestrian" speed="13.89" length="45.24" shape="9.31,-49.96 8.36,-4.73"/>
    </edge>
    <edge id="-E16" from="J18" to="J26" priority="-1">
        <lane id="-E16_0" index="0" allow="pedestrian" speed="13.89" length="45.81" shape="-4.72,8.34 -50.53,8.94"/>
    </edge>
    <edge id="-E17" from="J27" to="J18" priority="-1">
        <lane id="-E17_0" index="0" allow="pedestrian" speed="13.89" length="44.64" shape="49.35,8.68 4.71,8.32"/>
    </edge>
    <edge id="-E18" from="J19" to="J28" priority="-1">
        <lane id="-E18_0" index="0" allow="pedestrian" speed="13.89" length="45.41" shape="-4.76,-4.96 -50.17,-5.56"/>
    </edge>
    <edge id="-E19" from="J29" to="J19" priority="-1">
        <lane id="-E19_0" index="0" allow="pedestrian" speed="13.89" length="45.18" shape="49.89,-5.03 4.71,-4.91"/>
    </edge>
    <edge id="-E4" from="J7" to="J21" priority="-1">
        <lane id="-E4_0" index="0" speed="13.89" length="0.20" shape="-9.62,1.60 -9.82,1.60"/>
    </edge>
    <edge id="-E40" from="J21" to="J6" priority="-1">
        <lane id="-E40_0" index="0" speed="13.89" length="38.21" shape="-11.79,1.60 -50.00,1.60"/>
    </edge>
    <edge id="-E5" from="J8" to="J20" priority="-1">
        <lane id="-E5_0" index="0" speed="13.89" length="38.58" shape="50.00,1.60 11.42,1.60"/>
    </edge>
    <edge id="-E5.43" from="J20" to="J7" priority="-1">
        <lane id="-E5.43_0" index="0" speed="13.89" length="0.20" shape="9.43,1.60 9.23,1.60"/>
    </edge>
    <edge id="-E6" from="J7" to="J19" priority="-1">
        <lane id="-E6_0" index="0" speed="13.89" length="0.20" shape="-1.60,-9.05 -1.60,-9.25"/>
    </edge>
    <edge id="-E6.6" from="J19" to="J9" priority="-1">
        <lane id="-E6.6_0" index="0" speed="13.89" length="38.76" shape="-1.60,-11.24 -1.60,-50.00"/>
    </edge>
    <edge id="-E7" from="J10" to="J18" priority="-1">
        <lane id="-E7_0" index="0" speed="13.89" length="38.58" shape="-1.60,50.00 -1.60,11.42"/>
    </edge>
    <edge id="-E7.43" from="J18" to="J7" priority="-1">
        <lane id="-E7.43_0" index="0" speed="13.89" length="0.20" shape="-1.60,9.44 -1.60,9.24"/>
    </edge>
    <edge id="E12" from="J22" to="J21" priority="-1">
        <lane id="E12_0" index="0" allow="pedestrian" speed="13.89" length="44.92" shape="-9.18,49.63 -8.70,4.72"/>
    </edge>
    <edge id="E13" from="J21" to="J23" priority="-1">
        <lane id="E13_0" index="0" allow="pedestrian" speed="13.89" length="45.00" shape="-8.70,-4.72 -9.18,-49.72"/>
    </edge>
    <edge id="E14" from="J24" to="J20" priority="-1">
        <lane id="E14_0" index="0" allow="pedestrian" speed="13.89" length="45.70" shape="5.85,50.47 5.13,4.78"/>
    </edge>
    <edge id="E15" from="J20" to="J25" priority="-1">
        <lane id="E15_0" index="0" allow="pedestrian" speed="13.89" length="45.24" shape="5.16,-4.80 6.11,-50.03"/>
    </edge>
    <edge id="E16" from="J26" to="J18" priority="-1">
        <lane id="E16_0" index="0" allow="pedestrian" speed="13.89" length="45.81" shape="-50.57,5.74 -4.76,5.14"/>
    </edge>
    <edge id="E17" from="J18" to="J27" priority="-1">
        <lane id="E17_0" index="0" allow="pedestrian" speed="13.89" length="44.64" shape="4.74,5.12 49.38,5.48"/>
    </edge>
    <edge id="E18" from="J28" to="J19" priority="-1">
        <lane id="E18_0" index="0" allow="pedestrian" speed="13.89" length="45.41" shape="-50.13,-8.76 -4.72,-8.16"/>
    </edge>
    <edge id="E19" from="J19" to="J29" priority="-1">
        <lane id="E19_0" index="0" allow="pedestrian" speed="13.89" length="45.18" shape="4.70,-8.11 49.89,-8.23"/>
    </edge>
    <edge id="E4" from="J6" to="J21" priority="-1">
        <lane id="E4_0" index="0" speed="13.89" length="38.21" shape="-50.00,-1.60 -11.79,-1.60"/>
    </edge>
    <edge id="E4.42" from="J21" to="J7" priority="-1">
        <lane id="E4.42_0" index="0" speed="13.89" length="0.20" shape="-9.82,-1.60 -9.62,-1.60"/>
    </edge>
    <edge id="E5" from="J7" to="J20" priority="-1">
        <lane id="E5_0" index="0" speed="13.89" length="0.20" shape="9.23,-1.60 9.43,-1.60"/>
    </edge>
    <edge id="E50" from="J20" to="J8" priority="-1">
        <lane id="E50_0" index="0" speed="13.89" length="38.58" shape="11.42,-1.60 50.00,-1.60"/>
    </edge>
    <edge id="E6" from="J9" to="J19" priority="-1">
        <lane id="E6_0" index="0" speed="13.89" length="38.76" shape="1.60,-50.00 1.60,-11.24"/>
    </edge>
    <edge id="E60" from="J19" to="J7" priority="-1">
        <lane id="E60_0" index="0" speed="13.89" length="0.20" shape="1.60,-9.25 1.60,-9.05"/>
    </edge>
    <edge id="E7" from="J7" to="J18" priority="-1">
        <lane id="E7_0" index="0" speed="13.89" length="0.20" shape="1.60,9.24 1.60,9.44"/>
    </edge>
    <edge id="E70" from="J18" to="J10" priority="-1">
        <lane id="E70_0" index="0" speed="13.89" length="38.58" shape="1.60,11.42 1.60,50.00"/>
    </edge>

    <junction id="J10" type="dead_end" x="0.00" y="50.00" incLanes="E70_0" intLanes="" shape="0.00,50.00 3.20,50.00 0.00,50.00"/>
    <junction id="J18" type="dead_end" x="0.00" y="6.68" incLanes="-E7_0 -E17_0 E7_0 E16_0" intLanes="" shape="-3.20,11.42 3.20,11.42 3.37,10.58 3.57,10.29 3.87,10.08 4.24,9.96 4.70,9.92 4.75,3.52 3.89,3.35 3.59,3.13 3.37,2.84 3.24,2.47 3.20,2.01 -3.20,2.01 -3.38,2.85 -3.60,3.15 -3.90,3.36 -4.30,3.49 -4.78,3.54 -4.70,9.94 -3.87,10.10 -3.57,10.30 -3.37,10.59 -3.24,10.97"/>
    <junction id="J19" type="dead_end" x="0.00" y="-6.50" incLanes="-E6_0 -E19_0 E6_0 E18_0" intLanes="" shape="-3.20,-1.81 3.20,-1.81 3.37,-2.64 3.58,-2.93 3.87,-3.14 4.25,-3.27 4.72,-3.31 4.70,-9.71 3.87,-9.88 3.57,-10.09 3.37,-10.39 3.24,-10.77 3.20,-11.24 -3.20,-11.24 -3.37,-10.41 -3.57,-10.12 -3.87,-9.92 -4.24,-9.80 -4.70,-9.76 -4.78,-3.36 -3.90,-3.18 -3.60,-2.96 -3.38,-2.66 -3.24,-2.28"/>
    <junction id="J20" type="dead_end" x="6.66" y="0.00" incLanes="E14_0 -E5_0 -E15_0 E5_0" intLanes="" shape="3.53,4.80 9.93,4.70 10.09,3.87 10.29,3.57 10.58,3.37 10.96,3.24 11.42,3.20 11.42,-3.20 10.59,-3.37 10.31,-3.57 10.11,-3.87 9.99,-4.24 9.96,-4.70 3.56,-4.83 3.37,-3.93 3.15,-3.61 2.85,-3.38 2.47,-3.25 2.01,-3.20 2.01,3.20 2.84,3.38 3.14,3.60 3.35,3.91 3.48,4.31"/>
    <junction id="J21" type="dead_end" x="-7.05" y="0.00" incLanes="-E4_0 -E13_0 E4_0 E12_0" intLanes="" shape="-2.39,3.20 -2.39,-3.20 -3.22,-3.37 -3.51,-3.59 -3.73,-3.90 -3.86,-4.29 -3.90,-4.77 -10.30,-4.70 -10.46,-3.87 -10.66,-3.57 -10.95,-3.37 -11.33,-3.24 -11.79,-3.20 -11.79,3.20 -10.95,3.37 -10.66,3.57 -10.46,3.87 -10.34,4.24 -10.30,4.70 -3.90,4.77 -3.73,3.90 -3.51,3.59 -3.22,3.37 -2.84,3.24"/>
    <junction id="J22" type="dead_end" x="-7.58" y="49.65" incLanes="-E12_0" intLanes="" shape="-7.58,49.65 -4.38,49.68 -7.58,49.65"/>
    <junction id="J23" type="dead_end" x="-7.58" y="-49.73" incLanes="E13_0" intLanes="" shape="-7.58,-49.73 -10.78,-49.70 -7.58,-49.73"/>
    <junction id="J24" type="dead_end" x="7.45" y="50.44" incLanes="-E14_0" intLanes="" shape="7.45,50.44 10.65,50.39 7.45,50.44"/>
    <junction id="J25" type="dead_end" x="7.71" y="-50.00" incLanes="E15_0" intLanes="" shape="7.71,-50.00 4.51,-50.06 7.71,-50.00"/>
    <junction id="J26" type="dead_end" x="-50.55" y="7.34" incLanes="-E16_0" intLanes="" shape="-50.55,7.34 -50.51,10.54 -50.55,7.34"/>
    <junction id="J27" type="dead_end" x="49.36" y="7.08" incLanes="E17_0" intLanes="" shape="49.36,7.08 49.39,3.88 49.36,7.08"/>
    <junction id="J28" type="dead_end" x="-50.15" y="-7.16" incLanes="-E18_0" intLanes="" shape="-50.15,-7.16 -50.20,-3.96 -50.15,-7.16"/>
    <junction id="J29" type="dead_end" x="49.89" y="-6.63" incLanes="E19_0" intLanes="" shape="49.89,-6.63 49.88,-9.83 49.89,-6.63"/>
    <junction id="J6" type="dead_end" x="-50.00" y="0.00" incLanes="-E40_0" intLanes="" shape="-50.00,0.00 -50.00,3.20 -50.00,0.00"/>
    <junction id="J7" type="traffic_light" x="0.00" y="0.00" incLanes="-E7.43_0 -E5.43_0 E60_0 E4.42_0" intLanes=":J7_0_0 :J7_1_0 :J7_12_0 :J7_3_0 :J7_4_0 :J7_5_0 :J7_6_0 :J7_7_0 :J7_13_0 :J7_9_0 :J7_10_0 :J7_11_0" shape="-3.20,16.68 3.20,16.68 16.66,3.20 16.66,-3.20 3.20,-16.50 -3.20,-16.50 -17.05,-3.20 -17.05,3.20" radius="20.00">
        <request index="0"  response="000000000000" foes="000100010000" cont="0"/>
        <request index="1"  response="000000000000" foes="111100110000" cont="0"/>
        <request index="2"  response="000011000000" foes="110011110000" cont="1"/>
        <request index="3"  response="000010000000" foes="100010000000" cont="0"/>
        <request index="4"  response="000110000111" foes="100110000111" cont="0"/>
        <request index="5"  response="011110000110" foes="011110000110" cont="0"/>
        <request index="6"  response="000000000000" foes="010000000100" cont="0"/>
        <request index="7"  response="000000000000" foes="110000111100" cont="0"/>
        <request index="8"  response="000000000011" foes="110000110011" cont="1"/>
        <request index="9"  response="000000000010" foes="000000100010" cont="0"/>
        <request index="10" response="000111000110" foes="000111100110" cont="0"/>
        <request index="11" response="000110011110" foes="000110011110" cont="0"/>
    </junction>
    <junction id="J8" type="dead_end" x="50.00" y="0.00" incLanes="E50_0" intLanes="" shape="50.00,0.00 50.00,-3.20 50.00,0.00"/>
    <junction id="J9" type="dead_end" x="0.00" y="-50.00" incLanes="-E6.6_0" intLanes="" shape="0.00,-50.00 -3.20,-50.00 0.00,-50.00"/>

    <junction id=":J7_12_0" type="internal" x="-0.92" y="4.50" incLanes=":J7_2_0 E60_0" intLanes=":J7_4_0 :J7_5_0 :J7_6_0 :J7_7_0 :J7_10_0 :J7_11_0"/>
    <junction id=":J7_13_0" type="internal" x="0.92" y="-4.51" incLanes=":J7_8_0 -E7.43_0" intLanes=":J7_0_0 :J7_1_0 :J7_4_0 :J7_5_0 :J7_10_0 :J7_11_0"/>

    <connection from="-E5.43" to="E7" fromLane="0" toLane="0" via=":J7_3_0" dir="r" state="m"/>
    <connection from="-E5.43" to="-E4" fromLane="0" toLane="0" via=":J7_4_0" dir="s" state="m"/>
    <connection from="-E5.43" to="-E6" fromLane="0" toLane="0" via=":J7_5_0" dir="l" state="m"/>
    <connection from="-E7.43" to="-E4" fromLane="0" toLane="0" via=":J7_0_0" dir="r" state="M"/>
    <connection from="-E7.43" to="-E6" fromLane="0" toLane="0" via=":J7_1_0" dir="s" state="M"/>
    <connection from="-E7.43" to="E5" fromLane="0" toLane="0" via=":J7_2_0" dir="l" state="m"/>
    <connection from="E4.42" to="-E6" fromLane="0" toLane="0" via=":J7_9_0" dir="r" state="m"/>
    <connection from="E4.42" to="E5" fromLane="0" toLane="0" via=":J7_10_0" dir="s" state="m"/>
    <connection from="E4.42" to="E7" fromLane="0" toLane="0" via=":J7_11_0" dir="l" state="m"/>
    <connection from="E60" to="E5" fromLane="0" toLane="0" via=":J7_6_0" dir="r" state="M"/>
    <connection from="E60" to="E7" fromLane="0" toLane="0" via=":J7_7_0" dir="s" state="M"/>
    <connection from="E60" to="-E4" fromLane="0" toLane="0" via=":J7_8_0" dir="l" state="m"/>

    <connection from=":J7_0" to="-E4" fromLane="0" toLane="0" dir="r" state="M"/>
    <connection from=":J7_1" to="-E6" fromLane="0" toLane="0" dir="s" state="M"/>
    <connection from=":J7_2" to="E5" fromLane="0" toLane="0" via=":J7_12_0" dir="l" state="m"/>
    <connection from=":J7_12" to="E5" fromLane="0" toLane="0" dir="l" state="M"/>
    <connection from=":J7_3" to="E7" fromLane="0" toLane="0" dir="r" state="M"/>
    <connection from=":J7_4" to="-E4" fromLane="0" toLane="0" dir="s" state="M"/>
    <connection from=":J7_5" to="-E6" fromLane="0" toLane="0" dir="l" state="M"/>
    <connection from=":J7_6" to="E5" fromLane="0" toLane="0" dir="r" state="M"/>
    <connection from=":J7_7" to="E7" fromLane="0" toLane="0" dir="s" state="M"/>
    <connection from=":J7_8" to="-E4" fromLane="0" toLane="0" via=":J7_13_0" dir="l" state="m"/>
    <connection from=":J7_13" to="-E4" fromLane="0" toLane="0" dir="l" state="M"/>
    <connection from=":J7_9" to="-E6" fromLane="0" toLane="0" dir="r" state="M"/>
    <connection from=":J7_10" to="E5" fromLane="0" toLane="0" dir="s" state="M"/>
    <connection from=":J7_11" to="E7" fromLane="0" toLane="0" dir="l" state="M"/>

</net>
