<?xml version="1.0" encoding="UTF-8"?>

<!-- generated on 2024-04-20 01:30:43 by Eclipse SUMO netedit Version 1.19.0
-->

<additional xmlns:xsi="http://www.w3.org/2001/XMLSchema-instance" xsi:noNamespaceSchemaLocation="http://sumo.dlr.de/xsd/additional_file.xsd">
    <!-- Detectors -->
    <inductionLoop id="q1_0" lane="E0_1" pos="90.18" period="300.00" file="q1_0.xml"/>
    <inductionLoop id="q1_1" lane="-E1_1" pos="90.06" period="300.00" file="q1_1.xml"/>
    <inductionLoop id="q1_2" lane="E2_1" pos="190.08" period="300.00" file="q1_2.xml"/>
</additional>
