<?xml version="1.0" encoding="UTF-8"?>

<!-- generated on 2024-04-20 00:53:39 by Eclipse SUMO netedit Version 1.19.0
-->

<additional xmlns:xsi="http://www.w3.org/2001/XMLSchema-instance" xsi:noNamespaceSchemaLocation="http://sumo.dlr.de/xsd/additional_file.xsd">
    <!-- Detectors -->
    <inductionLoop id="r1_0" lane="E1_1" pos="88.94" period="300.00" file="e1_0.xml"/>
    <inductionLoop id="r1_1" lane="E3_1" pos="83.14" period="300.00" file="e1_1.xml"/>
    <inductionLoop id="r1_2" lane="E5_1" pos="89.98" period="300.00" file="e1_2.xml"/>
    <inductionLoop id="r1_3" lane="-E4_1" pos="82.82" period="300.00" file="e1_3.xml"/>
    <inductionLoop id="r1_4" lane="-E2_1" pos="88.88" period="300.00" file="e1_4.xml"/>
</additional>
