<?xml version="1.0" encoding="UTF-8"?>

<!-- generated on 2024-04-20 00:35:15 by Eclipse SUMO netedit Version 1.19.0
-->

<routes xmlns:xsi="http://www.w3.org/2001/XMLSchema-instance" xsi:noNamespaceSchemaLocation="http://sumo.dlr.de/xsd/routes_file.xsd">
    <!-- Routes -->
    <route id="r_0" edges="E5 E4"/>
    <route id="r_1" edges="E5 E2"/>
    <route id="r_10" edges="-E2 -E5"/>
    <route id="r_11" edges="-E2 E4"/>
    <route id="r_12" edges="E1 -E3"/>
    <route id="r_13" edges="E1 -E5"/>
    <route id="r_14" edges="E1 E4"/>
    <route id="r_15" edges="E1 E2"/>
    <route id="r_16" edges="E3 -E5"/>
    <route id="r_17" edges="E3 E4"/>
    <route id="r_18" edges="E3 E2"/>
    <route id="r_19" edges="E3 -E1"/>
    <route id="r_2" edges="E5 -E1"/>
    <route id="r_3" edges="E5 -E3"/>
    <route id="r_4" edges="-E4 E2"/>
    <route id="r_5" edges="-E4 -E1"/>
    <route id="r_6" edges="-E4 -E3"/>
    <route id="r_7" edges="-E4 -E5"/>
    <route id="r_8" edges="-E2 -E1"/>
    <route id="r_9" edges="-E2 -E3"/>
    <!-- Vehicles, persons and containers (sorted by depart) -->
    <personFlow id="pf_0" begin="0.00" end="3600.00" personsPerHour="1800">
        <walk route="r_0"/>
    </personFlow>
    <personFlow id="pf_1" begin="0.00" end="3600.00" personsPerHour="1800">
        <walk route="r_1"/>
    </personFlow>
    <personFlow id="pf_10" begin="0.00" end="3600.00" personsPerHour="1800">
        <walk route="r_10"/>
    </personFlow>
    <personFlow id="pf_11" begin="0.00" end="3600.00" personsPerHour="1800">
        <walk route="r_11"/>
    </personFlow>
    <personFlow id="pf_12" begin="0.00" end="3600.00" personsPerHour="1800">
        <walk route="r_12"/>
    </personFlow>
    <personFlow id="pf_13" begin="0.00" end="3600.00" personsPerHour="1800">
        <walk route="r_13"/>
    </personFlow>
    <personFlow id="pf_14" begin="0.00" end="3600.00" personsPerHour="1800">
        <walk route="r_14"/>
    </personFlow>
    <personFlow id="pf_15" begin="0.00" end="3600.00" personsPerHour="1800">
        <walk route="r_15"/>
    </personFlow>
    <personFlow id="pf_16" begin="0.00" end="3600.00" personsPerHour="1800">
        <walk route="r_16"/>
    </personFlow>
    <personFlow id="pf_17" begin="0.00" end="3600.00" personsPerHour="1800">
        <walk route="r_17"/>
    </personFlow>
    <personFlow id="pf_18" begin="0.00" end="3600.00" personsPerHour="1800">
        <walk route="r_19"/>
    </personFlow>
    <personFlow id="pf_19" begin="0.00" end="3600.00" personsPerHour="1800">
        <walk route="r_19"/>
    </personFlow>
    <personFlow id="pf_2" begin="0.00" end="3600.00" personsPerHour="1800">
        <walk route="r_2"/>
    </personFlow>
    <personFlow id="pf_3" begin="0.00" end="3600.00" personsPerHour="1800">
        <walk route="r_3"/>
    </personFlow>
    <personFlow id="pf_4" begin="0.00" end="3600.00" personsPerHour="1800">
        <walk route="r_4"/>
    </personFlow>
    <personFlow id="pf_5" begin="0.00" end="3600.00" personsPerHour="1800">
        <walk route="r_5"/>
    </personFlow>
    <personFlow id="pf_6" begin="0.00" end="3600.00" personsPerHour="1800">
        <walk route="r_6"/>
    </personFlow>
    <personFlow id="pf_7" begin="0.00" end="3600.00" personsPerHour="1800">
        <walk route="r_7"/>
    </personFlow>
    <personFlow id="pf_8" begin="0.00" end="3600.00" personsPerHour="1800">
        <walk route="r_8"/>
    </personFlow>
    <personFlow id="pf_9" begin="0.00" end="3600.00" personsPerHour="1800">
        <walk route="r_9"/>
    </personFlow>
    <flow id="f_0" begin="0.00" route="r_0" end="3600.00" vehsPerHour="1800"/>
    <flow id="f_1" begin="0.00" route="r_1" end="3600.00" vehsPerHour="1800"/>
    <flow id="f_10" begin="0.00" route="r_9" end="3600.00" vehsPerHour="1800"/>
    <flow id="f_11" begin="0.00" route="r_11" end="3600.00" vehsPerHour="1800"/>
    <flow id="f_12" begin="0.00" route="r_12" end="3600.00" vehsPerHour="1800"/>
    <flow id="f_13" begin="0.00" route="r_13" end="3600.00" vehsPerHour="1800"/>
    <flow id="f_14" begin="0.00" route="r_14" end="3600.00" vehsPerHour="1800"/>
    <flow id="f_15" begin="0.00" route="r_15" end="3600.00" vehsPerHour="1800"/>
    <flow id="f_16" begin="0.00" route="r_16" end="3600.00" vehsPerHour="1800"/>
    <flow id="f_17" begin="0.00" route="r_18" end="3600.00" vehsPerHour="1800"/>
    <flow id="f_18" begin="0.00" route="r_17" end="3600.00" vehsPerHour="1800"/>
    <flow id="f_19" begin="0.00" route="r_19" end="3600.00" vehsPerHour="1800"/>
    <flow id="f_2" begin="0.00" route="r_2" end="3600.00" vehsPerHour="1800"/>
    <flow id="f_3" begin="0.00" route="r_3" end="3600.00" vehsPerHour="1800"/>
    <flow id="f_4" begin="0.00" route="r_4" end="3600.00" vehsPerHour="1800"/>
    <flow id="f_5" begin="0.00" route="r_5" end="3600.00" vehsPerHour="1800"/>
    <flow id="f_6" begin="0.00" route="r_6" end="3600.00" vehsPerHour="1800"/>
    <flow id="f_7" begin="0.00" route="r_7" end="3600.00" vehsPerHour="1800"/>
    <flow id="f_8" begin="0.00" route="r_8" end="3600.00" vehsPerHour="1800"/>
    <flow id="f_9" begin="0.00" route="r_10" end="3600.00" vehsPerHour="1800"/>
</routes>
