<?xml version="1.0" encoding="UTF-8"?>

<!-- generated on 2024-04-24 16:20:53 by Eclipse SUMO netedit Version 1.19.0
-->

<additional xmlns:xsi="http://www.w3.org/2001/XMLSchema-instance" xsi:noNamespaceSchemaLocation="http://sumo.dlr.de/xsd/additional_file.xsd">
    <!-- Detectors -->
    <inductionLoop id="e1_0" lane="E5_0" pos="40.41" period="300.00" file="e1_0.xml"/>
    <inductionLoop id="e1_1" lane="-E4_0" pos="32.84" period="300.00" file="e1_1.xml"/>
    <inductionLoop id="e1_2" lane="-E2_0" pos="32.35" period="300.00" file="e1_2.xml"/>
    <inductionLoop id="e1_3" lane="E1_0" pos="32.66" period="300.00" file="e1_3.xml"/>
    <inductionLoop id="e1_4" lane="E3_0" pos="33.56" period="300.00" file="e1_4.xml"/>
    <inductionLoop id="e1_5" lane="-E1_0" pos="1.97" period="300.00" file="e1_5.xml"/>
    <inductionLoop id="e1_6" lane="E2_0" pos="2.95" period="300.00" file="e1_6.xml"/>
    <inductionLoop id="e1_7" lane="E4_0" pos="1.91" period="300.00" file="e1_7.xml"/>
    <inductionLoop id="e1_8" lane="-E5_0" pos="2.86" period="300.00" file="e1_8.xml"/>
</additional>
