<?xml version="1.0" encoding="UTF-8"?>

<!-- generated on 2024-04-21 03:07:02 by Eclipse SUMO sumo Version 1.19.0
-->

<configuration xmlns:xsi="http://www.w3.org/2001/XMLSchema-instance" xsi:noNamespaceSchemaLocation="http://sumo.dlr.de/xsd/sumoConfiguration.xsd">

    <input>
        <net-file value="Y-intersection.net.xml"/>
        <route-files value="Y-intersection.rou.xml"/>
        <additional-files value="Y-intersection.add.xml"/>
    </input>

</configuration>
